
 OpenBabel05112222383D

 53 57  0  0  1  0  0  0  0  0999 V2000
    0.3310   60.5000  -20.0340 C   0  0  0  0  0  0  0  0  0  0  0  0
   -0.1840   59.1710  -19.9850 O   0  0  0  0  0  0  0  0  0  0  0  0
   -0.2910   58.4980  -21.1780 C   0  0  0  0  0  0  0  0  0  0  0  0
   -1.2640   58.8130  -22.1430 C   0  0  0  0  0  0  0  0  0  0  0  0
   -1.3280   58.1270  -23.3570 C   0  0  0  0  0  0  0  0  0  0  0  0
   -0.4090   57.1260  -23.6350 C   0  0  0  0  0  0  0  0  0  0  0  0
    0.5540   56.7920  -22.6840 C   0  0  0  0  0  0  0  0  0  0  0  0
    0.6190   57.4520  -21.4390 C   0  0  0  0  0  0  0  0  0  0  0  0
    1.6640   56.9410  -20.4800 C   0  0  0  0  0  0  0  0  0  0  0  0
    2.7130   56.5070  -20.9500 O   0  0  0  0  0  0  0  0  0  0  0  0
    1.3330   56.9320  -19.1480 N   0  0  0  0  0  0  0  0  0  0  0  0
    2.1290   56.4410  -18.1510 C   0  0  0  0  0  0  0  0  0  0  0  0
    2.0980   55.1430  -17.7130 N   0  0  0  0  0  0  0  0  0  0  0  0
    3.0460   55.0960  -16.8210 C   0  0  2  0  0  0  0  0  0  0  0  0
    3.5830   56.3460  -16.6720 N   0  0  1  0  0  0  0  0  0  0  0  0
    3.0430   57.2180  -17.5510 N   0  0  0  0  0  0  0  0  0  0  0  0
    4.6020   56.6730  -15.6650 C   0  0  2  0  0  0  0  0  0  0  0  0
    5.6930   57.5680  -16.2350 C   0  0  0  0  0  0  0  0  0  0  0  0
    6.5600   57.0790  -17.2290 C   0  0  0  0  0  0  0  0  0  0  0  0
    7.5290   57.9120  -17.7910 C   0  0  0  0  0  0  0  0  0  0  0  0
    7.6340   59.2290  -17.3610 C   0  0  0  0  0  0  0  0  0  0  0  0
    8.5490   60.0330  -17.9180 F   0  0  0  0  0  0  0  0  0  0  0  0
    6.8010   59.7280  -16.3680 C   0  0  0  0  0  0  0  0  0  0  0  0
    5.8320   58.9000  -15.8030 C   0  0  0  0  0  0  0  0  0  0  0  0
    5.1930   55.4140  -15.0350 C   0  0  0  0  0  0  0  0  0  0  0  0
    4.6630   54.2040  -15.2950 C   0  0  0  0  0  0  0  0  0  0  0  0
    5.2670   52.9780  -14.7580 C   0  0  0  0  0  0  0  0  0  0  0  0
    6.4670   52.4820  -15.2880 C   0  0  0  0  0  0  0  0  0  0  0  0
    7.0410   51.3210  -14.7610 C   0  0  0  0  0  0  0  0  0  0  0  0
    6.4230   50.6520  -13.7060 C   0  0  0  0  0  0  0  0  0  0  0  0
    7.1360   49.2300  -13.0530 C   0  0  0  0  0  0  0  0  0  0  0  0
    5.2270   51.1350  -13.1730 C   0  0  0  0  0  0  0  0  0  0  0  0
    4.6530   52.2970  -13.7020 C   0  0  0  0  0  0  0  0  0  0  0  0
    3.5580   54.0690  -16.1100 N   0  0  0  0  0  0  0  0  0  0  0  0
    0.4200   60.8680  -19.0080 H   0  0  0  0  0  0  0  0  0  0  0  0
   -0.3610   61.1610  -20.5670 H   0  0  0  0  0  0  0  0  0  0  0  0
    1.3300   60.5280  -20.4830 H   0  0  0  0  0  0  0  0  0  0  0  0
   -2.0000   59.5950  -21.9860 H   0  0  0  0  0  0  0  0  0  0  0  0
   -2.0910   58.3850  -24.0870 H   0  0  0  0  0  0  0  0  0  0  0  0
   -0.4420   56.5980  -24.5850 H   0  0  0  0  0  0  0  0  0  0  0  0
    1.2620   55.9980  -22.9190 H   0  0  0  0  0  0  0  0  0  0  0  0
    0.4090   57.2160  -18.8540 H   0  0  0  0  0  0  0  0  0  0  0  0
    4.0550   57.2120  -14.8790 H   0  0  0  0  0  0  0  0  0  0  0  0
    6.4890   56.0490  -17.5730 H   0  0  0  0  0  0  0  0  0  0  0  0
    8.1970   57.5450  -18.5630 H   0  0  0  0  0  0  0  0  0  0  0  0
    6.9060   60.7570  -16.0420 H   0  0  0  0  0  0  0  0  0  0  0  0
    5.1860   59.2960  -15.0220 H   0  0  0  0  0  0  0  0  0  0  0  0
    6.0660   55.5210  -14.3990 H   0  0  0  0  0  0  0  0  0  0  0  0
    6.9620   52.9980  -16.1070 H   0  0  0  0  0  0  0  0  0  0  0  0
    7.9750   50.9440  -15.1750 H   0  0  0  0  0  0  0  0  0  0  0  0
    4.7440   50.6160  -12.3500 H   0  0  0  0  0  0  0  0  0  0  0  0
    3.7200   52.6660  -13.2740 H   0  0  0  0  0  0  0  0  0  0  0  0
    3.2000   53.1310  -16.2730 H   0  0  0  0  0  0  0  0  0  0  0  0
  1  2  1  0  0  0  0
  1 35  1  0  0  0  0
  3  2  1  0  0  0  0
  4 38  1  0  0  0  0
  4  3  2  0  0  0  0
  5  4  1  0  0  0  0
  6  5  2  0  0  0  0
  6  7  1  0  0  0  0
  7  8  2  0  0  0  0
  8  3  1  0  0  0  0
  8  9  1  0  0  0  0
  9 11  1  0  0  0  0
 10  9  2  0  0  0  0
 11 42  1  0  0  0  0
 11 12  1  0  0  0  0
 12 13  2  0  0  0  0
 12 16  1  0  0  0  0
 14 13  1  6  0  0  0
 14 15  1  0  0  0  0
 14 34  1  0  0  0  0
 15 16  1  1  0  0  0
 15 17  1  0  0  0  0
 17 25  1  0  0  0  0
 17 43  1  1  0  0  0
 18 24  1  0  0  0  0
 18 17  1  0  0  0  0
 19 18  2  0  0  0  0
 20 21  2  0  0  0  0
 20 19  1  0  0  0  0
 21 23  1  0  0  0  0
 22 21  1  0  0  0  0
 23 46  1  0  0  0  0
 23 24  2  0  0  0  0
 24 47  1  0  0  0  0
 25 48  1  0  0  0  0
 26 25  2  0  0  0  0
 26 27  1  0  0  0  0
 27 33  1  0  0  0  0
 28 29  1  0  0  0  0
 28 27  2  0  0  0  0
 29 30  2  0  0  0  0
 30 32  1  0  0  0  0
 30 31  1  0  0  0  0
 32 51  1  0  0  0  0
 33 52  1  0  0  0  0
 33 32  2  0  0  0  0
 34 26  1  0  0  0  0
 36  1  1  0  0  0  0
 37  1  1  0  0  0  0
 39  5  1  0  0  0  0
 40  6  1  0  0  0  0
 41  7  1  0  0  0  0
 44 19  1  0  0  0  0
 45 20  1  0  0  0  0
 49 28  1  0  0  0  0
 50 29  1  0  0  0  0
 53 34  1  0  0  0  0
M  END
>  <Pose>
8

>  <Score>
-6.17

$$$$

 OpenBabel05112222383D

 53 57  0  0  1  0  0  0  0  0999 V2000
    0.5830   60.9370  -20.2060 C   0  0  0  0  0  0  0  0  0  0  0  0
   -0.3150   59.8440  -20.0230 O   0  0  0  0  0  0  0  0  0  0  0  0
   -0.5890   59.0700  -21.1240 C   0  0  0  0  0  0  0  0  0  0  0  0
   -1.6330   59.3640  -22.0200 C   0  0  0  0  0  0  0  0  0  0  0  0
   -1.8660   58.5710  -23.1440 C   0  0  0  0  0  0  0  0  0  0  0  0
   -1.0510   57.4790  -23.4030 C   0  0  0  0  0  0  0  0  0  0  0  0
   -0.0200   57.1650  -22.5180 C   0  0  0  0  0  0  0  0  0  0  0  0
    0.2160   57.9360  -21.3600 C   0  0  0  0  0  0  0  0  0  0  0  0
    1.3180   57.4410  -20.4570 C   0  0  0  0  0  0  0  0  0  0  0  0
    2.4100   57.1960  -20.9640 O   0  0  0  0  0  0  0  0  0  0  0  0
    0.9920   57.2280  -19.1410 N   0  0  0  0  0  0  0  0  0  0  0  0
    1.8440   56.7180  -18.2010 C   0  0  0  0  0  0  0  0  0  0  0  0
    1.9120   55.3890  -17.8680 N   0  0  0  0  0  0  0  0  0  0  0  0
    2.8830   55.3400  -17.0010 C   0  0  2  0  0  0  0  0  0  0  0  0
    3.3360   56.6090  -16.7610 N   0  0  1  0  0  0  0  0  0  0  0  0
    2.7160   57.5070  -17.5570 N   0  0  0  0  0  0  0  0  0  0  0  0
    4.3530   56.9270  -15.7500 C   0  0  2  0  0  0  0  0  0  0  0  0
    5.3660   57.9380  -16.2660 C   0  0  0  0  0  0  0  0  0  0  0  0
    6.2790   57.5740  -17.2730 C   0  0  0  0  0  0  0  0  0  0  0  0
    7.1750   58.5130  -17.7850 C   0  0  0  0  0  0  0  0  0  0  0  0
    7.1630   59.8120  -17.2930 C   0  0  0  0  0  0  0  0  0  0  0  0
    8.0080   60.7180  -17.8020 F   0  0  0  0  0  0  0  0  0  0  0  0
    6.2830   60.1900  -16.2870 C   0  0  0  0  0  0  0  0  0  0  0  0
    5.3870   59.2550  -15.7710 C   0  0  0  0  0  0  0  0  0  0  0  0
    5.0450   55.6670  -15.2340 C   0  0  0  0  0  0  0  0  0  0  0  0
    4.5930   54.4460  -15.5800 C   0  0  0  0  0  0  0  0  0  0  0  0
    5.2930   53.2280  -15.1540 C   0  0  0  0  0  0  0  0  0  0  0  0
    4.8800   52.5310  -14.0090 C   0  0  0  0  0  0  0  0  0  0  0  0
    5.5460   51.3650  -13.6180 C   0  0  0  0  0  0  0  0  0  0  0  0
    6.6220   50.8910  -14.3650 C   0  0  0  0  0  0  0  0  0  0  0  0
    7.4340   49.4520  -13.8880 C   0  0  0  0  0  0  0  0  0  0  0  0
    7.0440   51.5790  -15.5040 C   0  0  0  0  0  0  0  0  0  0  0  0
    6.3770   52.7460  -15.8940 C   0  0  0  0  0  0  0  0  0  0  0  0
    3.4810   54.2980  -16.3830 N   0  0  0  0  0  0  0  0  0  0  0  0
    0.7520   61.4050  -19.2320 H   0  0  0  0  0  0  0  0  0  0  0  0
    0.1420   61.6910  -20.8670 H   0  0  0  0  0  0  0  0  0  0  0  0
    1.5550   60.5990  -20.5830 H   0  0  0  0  0  0  0  0  0  0  0  0
   -2.2930   60.2130  -21.8750 H   0  0  0  0  0  0  0  0  0  0  0  0
   -2.6820   58.8160  -23.8210 H   0  0  0  0  0  0  0  0  0  0  0  0
   -1.2160   56.8670  -24.2850 H   0  0  0  0  0  0  0  0  0  0  0  0
    0.6050   56.3000  -22.7360 H   0  0  0  0  0  0  0  0  0  0  0  0
    0.0420   57.3600  -18.8260 H   0  0  0  0  0  0  0  0  0  0  0  0
    3.7890   57.3620  -14.9140 H   0  0  0  0  0  0  0  0  0  0  0  0
    6.2990   56.5590  -17.6650 H   0  0  0  0  0  0  0  0  0  0  0  0
    7.8780   58.2420  -18.5660 H   0  0  0  0  0  0  0  0  0  0  0  0
    6.2960   61.2080  -15.9120 H   0  0  0  0  0  0  0  0  0  0  0  0
    4.7030   59.5570  -14.9790 H   0  0  0  0  0  0  0  0  0  0  0  0
    5.9230   55.7850  -14.6070 H   0  0  0  0  0  0  0  0  0  0  0  0
    4.0380   52.8870  -13.4210 H   0  0  0  0  0  0  0  0  0  0  0  0
    5.2170   50.8270  -12.7310 H   0  0  0  0  0  0  0  0  0  0  0  0
    7.8820   51.2110  -16.0890 H   0  0  0  0  0  0  0  0  0  0  0  0
    6.7140   53.2720  -16.7880 H   0  0  0  0  0  0  0  0  0  0  0  0
    3.1850   53.3540  -16.6140 H   0  0  0  0  0  0  0  0  0  0  0  0
  1  2  1  0  0  0  0
  1 35  1  0  0  0  0
  3  2  1  0  0  0  0
  4 38  1  0  0  0  0
  4  3  2  0  0  0  0
  5  4  1  0  0  0  0
  6  5  2  0  0  0  0
  6  7  1  0  0  0  0
  7  8  2  0  0  0  0
  8  3  1  0  0  0  0
  8  9  1  0  0  0  0
  9 11  1  0  0  0  0
 10  9  2  0  0  0  0
 11 42  1  0  0  0  0
 11 12  1  0  0  0  0
 12 13  2  0  0  0  0
 12 16  1  0  0  0  0
 14 13  1  6  0  0  0
 14 15  1  0  0  0  0
 14 34  1  0  0  0  0
 15 16  1  1  0  0  0
 15 17  1  0  0  0  0
 17 25  1  0  0  0  0
 17 43  1  1  0  0  0
 18 24  1  0  0  0  0
 18 17  1  0  0  0  0
 19 18  2  0  0  0  0
 20 21  2  0  0  0  0
 20 19  1  0  0  0  0
 21 23  1  0  0  0  0
 22 21  1  0  0  0  0
 23 46  1  0  0  0  0
 23 24  2  0  0  0  0
 24 47  1  0  0  0  0
 25 48  1  0  0  0  0
 26 25  2  0  0  0  0
 26 27  1  0  0  0  0
 27 28  1  0  0  0  0
 28 29  2  0  0  0  0
 28 49  1  0  0  0  0
 29 50  1  0  0  0  0
 30 31  1  0  0  0  0
 30 29  1  0  0  0  0
 32 30  2  0  0  0  0
 33 32  1  0  0  0  0
 33 27  2  0  0  0  0
 34 26  1  0  0  0  0
 36  1  1  0  0  0  0
 37  1  1  0  0  0  0
 39  5  1  0  0  0  0
 40  6  1  0  0  0  0
 41  7  1  0  0  0  0
 44 19  1  0  0  0  0
 45 20  1  0  0  0  0
 51 32  1  0  0  0  0
 52 33  1  0  0  0  0
 53 34  1  0  0  0  0
M  END
>  <Pose>
3

>  <Score>
-6.09

$$$$

 OpenBabel05112222383D

 53 57  0  0  1  0  0  0  0  0999 V2000
    0.1660   60.7340  -21.0320 C   0  0  0  0  0  0  0  0  0  0  0  0
   -0.9990   59.9190  -20.9090 O   0  0  0  0  0  0  0  0  0  0  0  0
   -1.3440   59.1530  -21.9950 C   0  0  0  0  0  0  0  0  0  0  0  0
   -2.4330   59.4630  -22.8290 C   0  0  0  0  0  0  0  0  0  0  0  0
   -2.7390   58.6780  -23.9420 C   0  0  0  0  0  0  0  0  0  0  0  0
   -1.9520   57.5790  -24.2500 C   0  0  0  0  0  0  0  0  0  0  0  0
   -0.8770   57.2490  -23.4270 C   0  0  0  0  0  0  0  0  0  0  0  0
   -0.5660   58.0110  -22.2810 C   0  0  0  0  0  0  0  0  0  0  0  0
    0.5790   57.5000  -21.4440 C   0  0  0  0  0  0  0  0  0  0  0  0
    1.5070   56.9380  -22.0220 O   0  0  0  0  0  0  0  0  0  0  0  0
    0.4610   57.6350  -20.0840 N   0  0  0  0  0  0  0  0  0  0  0  0
    1.3690   57.1670  -19.1740 C   0  0  0  0  0  0  0  0  0  0  0  0
    1.9950   55.9510  -19.2710 N   0  0  0  0  0  0  0  0  0  0  0  0
    2.8080   55.9430  -18.2530 C   0  0  2  0  0  0  0  0  0  0  0  0
    2.6230   57.0850  -17.5220 N   0  0  1  0  0  0  0  0  0  0  0  0
    1.7370   57.9100  -18.1210 N   0  0  0  0  0  0  0  0  0  0  0  0
    3.3010   57.3460  -16.2450 C   0  0  2  0  0  0  0  0  0  0  0  0
    3.7940   58.7830  -16.1500 C   0  0  0  0  0  0  0  0  0  0  0  0
    3.4580   59.5730  -15.0350 C   0  0  0  0  0  0  0  0  0  0  0  0
    3.9500   60.8740  -14.9190 C   0  0  0  0  0  0  0  0  0  0  0  0
    4.7750   61.3870  -15.9130 C   0  0  0  0  0  0  0  0  0  0  0  0
    5.2660   62.6260  -15.7880 F   0  0  0  0  0  0  0  0  0  0  0  0
    5.1050   60.6310  -17.0310 C   0  0  0  0  0  0  0  0  0  0  0  0
    4.6160   59.3320  -17.1520 C   0  0  0  0  0  0  0  0  0  0  0  0
    4.4370   56.3550  -15.9990 C   0  0  0  0  0  0  0  0  0  0  0  0
    4.6100   55.2960  -16.8130 C   0  0  0  0  0  0  0  0  0  0  0  0
    5.7420   54.3780  -16.6340 C   0  0  0  0  0  0  0  0  0  0  0  0
    6.8320   54.4090  -17.5170 C   0  0  0  0  0  0  0  0  0  0  0  0
    7.9110   53.5390  -17.3300 C   0  0  0  0  0  0  0  0  0  0  0  0
    7.9070   52.6380  -16.2670 C   0  0  0  0  0  0  0  0  0  0  0  0
    9.2400   51.5760  -16.0340 C   0  0  0  0  0  0  0  0  0  0  0  0
    6.8270   52.5970  -15.3840 C   0  0  0  0  0  0  0  0  0  0  0  0
    5.7480   53.4680  -15.5720 C   0  0  0  0  0  0  0  0  0  0  0  0
    3.7540   55.0590  -17.8690 N   0  0  0  0  0  0  0  0  0  0  0  0
    0.3430   61.2200  -20.0700 H   0  0  0  0  0  0  0  0  0  0  0  0
    0.0080   61.5180  -21.7800 H   0  0  0  0  0  0  0  0  0  0  0  0
    1.0520   60.1330  -21.2680 H   0  0  0  0  0  0  0  0  0  0  0  0
   -3.0750   60.3190  -22.6440 H   0  0  0  0  0  0  0  0  0  0  0  0
   -3.5890   58.9350  -24.5700 H   0  0  0  0  0  0  0  0  0  0  0  0
   -2.1740   56.9720  -25.1240 H   0  0  0  0  0  0  0  0  0  0  0  0
   -0.2750   56.3770  -23.6830 H   0  0  0  0  0  0  0  0  0  0  0  0
   -0.3820   58.0200  -19.6840 H   0  0  0  0  0  0  0  0  0  0  0  0
    2.5340   57.1680  -15.4800 H   0  0  0  0  0  0  0  0  0  0  0  0
    2.8120   59.1830  -14.2510 H   0  0  0  0  0  0  0  0  0  0  0  0
    3.7010   61.4880  -14.0590 H   0  0  0  0  0  0  0  0  0  0  0  0
    5.7450   61.0540  -17.7980 H   0  0  0  0  0  0  0  0  0  0  0  0
    4.8750   58.7470  -18.0330 H   0  0  0  0  0  0  0  0  0  0  0  0
    5.1130   56.5460  -15.1720 H   0  0  0  0  0  0  0  0  0  0  0  0
    6.8490   55.1100  -18.3460 H   0  0  0  0  0  0  0  0  0  0  0  0
    8.7550   53.5710  -18.0170 H   0  0  0  0  0  0  0  0  0  0  0  0
    6.8220   51.8970  -14.5540 H   0  0  0  0  0  0  0  0  0  0  0  0
    4.9110   53.4290  -14.8740 H   0  0  0  0  0  0  0  0  0  0  0  0
    3.9330   54.2460  -18.4510 H   0  0  0  0  0  0  0  0  0  0  0  0
  1  2  1  0  0  0  0
  1 35  1  0  0  0  0
  3  2  1  0  0  0  0
  4 38  1  0  0  0  0
  4  3  2  0  0  0  0
  5  4  1  0  0  0  0
  6  5  2  0  0  0  0
  6  7  1  0  0  0  0
  7  8  2  0  0  0  0
  8  3  1  0  0  0  0
  8  9  1  0  0  0  0
  9 11  1  0  0  0  0
 10  9  2  0  0  0  0
 11 42  1  0  0  0  0
 11 12  1  0  0  0  0
 12 16  1  0  0  0  0
 13 12  2  0  0  0  0
 14 13  1  6  0  0  0
 14 34  1  0  0  0  0
 14 15  1  0  0  0  0
 15 16  1  1  0  0  0
 15 17  1  0  0  0  0
 17 18  1  0  0  0  0
 17 25  1  0  0  0  0
 17 43  1  1  0  0  0
 18 19  1  0  0  0  0
 19 20  2  0  0  0  0
 19 44  1  0  0  0  0
 20 45  1  0  0  0  0
 21 22  1  0  0  0  0
 21 20  1  0  0  0  0
 23 21  2  0  0  0  0
 24 23  1  0  0  0  0
 24 18  2  0  0  0  0
 25 48  1  0  0  0  0
 26 27  1  0  0  0  0
 26 25  2  0  0  0  0
 27 33  1  0  0  0  0
 28 29  1  0  0  0  0
 28 27  2  0  0  0  0
 29 30  2  0  0  0  0
 30 31  1  0  0  0  0
 30 32  1  0  0  0  0
 32 51  1  0  0  0  0
 33 32  2  0  0  0  0
 33 52  1  0  0  0  0
 34 26  1  0  0  0  0
 36  1  1  0  0  0  0
 37  1  1  0  0  0  0
 39  5  1  0  0  0  0
 40  6  1  0  0  0  0
 41  7  1  0  0  0  0
 46 23  1  0  0  0  0
 47 24  1  0  0  0  0
 49 28  1  0  0  0  0
 50 29  1  0  0  0  0
 53 34  1  0  0  0  0
M  END
>  <Pose>
2

>  <Score>
-6.06

$$$$

 OpenBabel05112222383D

 53 57  0  0  1  0  0  0  0  0999 V2000
    1.8420   56.4320  -23.3110 C   0  0  0  0  0  0  0  0  0  0  0  0
    0.5300   56.3460  -22.7570 O   0  0  0  0  0  0  0  0  0  0  0  0
   -0.1210   57.5300  -22.5070 C   0  0  0  0  0  0  0  0  0  0  0  0
   -1.1070   58.0520  -23.3640 C   0  0  0  0  0  0  0  0  0  0  0  0
   -1.7680   59.2440  -23.0640 C   0  0  0  0  0  0  0  0  0  0  0  0
   -1.4690   59.9260  -21.8950 C   0  0  0  0  0  0  0  0  0  0  0  0
   -0.4850   59.4300  -21.0410 C   0  0  0  0  0  0  0  0  0  0  0  0
    0.2170   58.2430  -21.3370 C   0  0  0  0  0  0  0  0  0  0  0  0
    1.3010   57.8620  -20.3610 C   0  0  0  0  0  0  0  0  0  0  0  0
    2.4670   58.0690  -20.6880 O   0  0  0  0  0  0  0  0  0  0  0  0
    0.9040   57.2390  -19.2050 N   0  0  0  0  0  0  0  0  0  0  0  0
    1.7540   56.7640  -18.2450 C   0  0  0  0  0  0  0  0  0  0  0  0
    1.9140   55.4340  -17.9510 N   0  0  0  0  0  0  0  0  0  0  0  0
    2.8490   55.4310  -17.0440 C   0  0  2  0  0  0  0  0  0  0  0  0
    3.1890   56.7220  -16.7450 N   0  0  1  0  0  0  0  0  0  0  0  0
    2.5330   57.5960  -17.5390 N   0  0  0  0  0  0  0  0  0  0  0  0
    4.1350   57.0830  -15.6810 C   0  0  2  0  0  0  0  0  0  0  0  0
    5.0850   58.1880  -16.1200 C   0  0  0  0  0  0  0  0  0  0  0  0
    6.0400   57.9420  -17.1230 C   0  0  0  0  0  0  0  0  0  0  0  0
    6.8790   58.9660  -17.5650 C   0  0  0  0  0  0  0  0  0  0  0  0
    6.7670   60.2340  -17.0060 C   0  0  0  0  0  0  0  0  0  0  0  0
    7.5560   61.2210  -17.4480 F   0  0  0  0  0  0  0  0  0  0  0  0
    5.8440   60.4950  -16.0010 C   0  0  0  0  0  0  0  0  0  0  0  0
    5.0040   59.4750  -15.5560 C   0  0  0  0  0  0  0  0  0  0  0  0
    4.9030   55.8640  -15.1750 C   0  0  0  0  0  0  0  0  0  0  0  0
    4.5640   54.6250  -15.5780 C   0  0  0  0  0  0  0  0  0  0  0  0
    5.3410   53.4510  -15.1600 C   0  0  0  0  0  0  0  0  0  0  0  0
    5.0470   52.7920  -13.9570 C   0  0  0  0  0  0  0  0  0  0  0  0
    5.7850   51.6680  -13.5740 C   0  0  0  0  0  0  0  0  0  0  0  0
    6.8150   51.1980  -14.3860 C   0  0  0  0  0  0  0  0  0  0  0  0
    7.7140   49.8090  -13.9170 C   0  0  0  0  0  0  0  0  0  0  0  0
    7.1180   51.8470  -15.5830 C   0  0  0  0  0  0  0  0  0  0  0  0
    6.3790   52.9730  -15.9660 C   0  0  0  0  0  0  0  0  0  0  0  0
    3.5020   54.4180  -16.4340 N   0  0  0  0  0  0  0  0  0  0  0  0
    2.1910   55.4160  -23.5170 H   0  0  0  0  0  0  0  0  0  0  0  0
    2.5330   56.8850  -22.5940 H   0  0  0  0  0  0  0  0  0  0  0  0
    1.8410   56.9800  -24.2610 H   0  0  0  0  0  0  0  0  0  0  0  0
   -1.3910   57.5530  -24.2850 H   0  0  0  0  0  0  0  0  0  0  0  0
   -2.5240   59.6300  -23.7440 H   0  0  0  0  0  0  0  0  0  0  0  0
   -1.9920   60.8460  -21.6470 H   0  0  0  0  0  0  0  0  0  0  0  0
   -0.2600   59.9850  -20.1300 H   0  0  0  0  0  0  0  0  0  0  0  0
   -0.0700   57.0160  -19.0580 H   0  0  0  0  0  0  0  0  0  0  0  0
    3.5050   57.4440  -14.8570 H   0  0  0  0  0  0  0  0  0  0  0  0
    6.1390   56.9530  -17.5680 H   0  0  0  0  0  0  0  0  0  0  0  0
    7.6140   58.7870  -18.3430 H   0  0  0  0  0  0  0  0  0  0  0  0
    5.7780   61.4900  -15.5740 H   0  0  0  0  0  0  0  0  0  0  0  0
    4.2870   59.6860  -14.7650 H   0  0  0  0  0  0  0  0  0  0  0  0
    5.7420   56.0290  -14.5060 H   0  0  0  0  0  0  0  0  0  0  0  0
    4.2420   53.1460  -13.3180 H   0  0  0  0  0  0  0  0  0  0  0  0
    5.5480   51.1590  -12.6400 H   0  0  0  0  0  0  0  0  0  0  0  0
    7.9200   51.4820  -16.2180 H   0  0  0  0  0  0  0  0  0  0  0  0
    6.6240   53.4690  -16.9050 H   0  0  0  0  0  0  0  0  0  0  0  0
    3.2920   53.4620  -16.7070 H   0  0  0  0  0  0  0  0  0  0  0  0
  1  2  1  0  0  0  0
  1 36  1  0  0  0  0
  2  3  1  0  0  0  0
  3  8  1  0  0  0  0
  4  5  1  0  0  0  0
  4  3  2  0  0  0  0
  5  6  2  0  0  0  0
  6 40  1  0  0  0  0
  6  7  1  0  0  0  0
  7 41  1  0  0  0  0
  8  7  2  0  0  0  0
  8  9  1  0  0  0  0
  9 11  1  0  0  0  0
 10  9  2  0  0  0  0
 11 42  1  0  0  0  0
 11 12  1  0  0  0  0
 12 13  2  0  0  0  0
 12 16  1  0  0  0  0
 14 13  1  6  0  0  0
 14 15  1  0  0  0  0
 14 34  1  0  0  0  0
 15 16  1  1  0  0  0
 15 17  1  0  0  0  0
 17 25  1  0  0  0  0
 17 43  1  1  0  0  0
 18 17  1  0  0  0  0
 18 24  1  0  0  0  0
 19 18  2  0  0  0  0
 20 19  1  0  0  0  0
 20 21  2  0  0  0  0
 21 23  1  0  0  0  0
 22 21  1  0  0  0  0
 23 46  1  0  0  0  0
 23 24  2  0  0  0  0
 24 47  1  0  0  0  0
 25 48  1  0  0  0  0
 26 25  2  0  0  0  0
 26 27  1  0  0  0  0
 27 28  1  0  0  0  0
 28 29  2  0  0  0  0
 28 49  1  0  0  0  0
 29 50  1  0  0  0  0
 30 31  1  0  0  0  0
 30 29  1  0  0  0  0
 32 30  2  0  0  0  0
 33 32  1  0  0  0  0
 33 27  2  0  0  0  0
 34 26  1  0  0  0  0
 35  1  1  0  0  0  0
 37  1  1  0  0  0  0
 38  4  1  0  0  0  0
 39  5  1  0  0  0  0
 44 19  1  0  0  0  0
 45 20  1  0  0  0  0
 51 32  1  0  0  0  0
 52 33  1  0  0  0  0
 53 34  1  0  0  0  0
M  END
>  <Pose>
1

>  <Score>
-5.91

$$$$

 OpenBabel05112222383D

 53 57  0  0  1  0  0  0  0  0999 V2000
    1.1800   56.5620  -22.9730 C   0  0  0  0  0  0  0  0  0  0  0  0
   -0.1190   56.7200  -22.4050 O   0  0  0  0  0  0  0  0  0  0  0  0
   -0.5450   58.0050  -22.1680 C   0  0  0  0  0  0  0  0  0  0  0  0
   -1.5360   58.6320  -22.9440 C   0  0  0  0  0  0  0  0  0  0  0  0
   -1.9650   59.9290  -22.6580 C   0  0  0  0  0  0  0  0  0  0  0  0
   -1.4230   60.6160  -21.5820 C   0  0  0  0  0  0  0  0  0  0  0  0
   -0.4300   60.0140  -20.8100 C   0  0  0  0  0  0  0  0  0  0  0  0
    0.0390   58.7150  -21.0980 C   0  0  0  0  0  0  0  0  0  0  0  0
    1.1630   58.2160  -20.2260 C   0  0  0  0  0  0  0  0  0  0  0  0
    2.3060   58.2670  -20.6750 O   0  0  0  0  0  0  0  0  0  0  0  0
    0.8140   57.6700  -19.0160 N   0  0  0  0  0  0  0  0  0  0  0  0
    1.6940   57.1080  -18.1330 C   0  0  0  0  0  0  0  0  0  0  0  0
    1.8990   55.7590  -18.0080 N   0  0  0  0  0  0  0  0  0  0  0  0
    2.8480   55.6730  -17.1190 C   0  0  2  0  0  0  0  0  0  0  0  0
    3.1530   56.9280  -16.6670 N   0  0  1  0  0  0  0  0  0  0  0  0
    2.4570   57.8720  -17.3380 N   0  0  0  0  0  0  0  0  0  0  0  0
    4.1040   57.1860  -15.5770 C   0  0  2  0  0  0  0  0  0  0  0  0
    5.0120   58.3670  -15.8860 C   0  0  0  0  0  0  0  0  0  0  0  0
    4.9480   59.5320  -15.1000 C   0  0  0  0  0  0  0  0  0  0  0  0
    5.8150   60.5980  -15.3480 C   0  0  0  0  0  0  0  0  0  0  0  0
    6.7420   60.5030  -16.3790 C   0  0  0  0  0  0  0  0  0  0  0  0
    7.5880   61.5170  -16.5990 F   0  0  0  0  0  0  0  0  0  0  0  0
    6.8100   59.3700  -17.1790 C   0  0  0  0  0  0  0  0  0  0  0  0
    5.9460   58.3030  -16.9360 C   0  0  0  0  0  0  0  0  0  0  0  0
    4.9170   55.9390  -15.2350 C   0  0  0  0  0  0  0  0  0  0  0  0
    4.6110   54.7490  -15.7860 C   0  0  0  0  0  0  0  0  0  0  0  0
    5.4300   53.5580  -15.5260 C   0  0  0  0  0  0  0  0  0  0  0  0
    6.4980   53.2280  -16.3730 C   0  0  0  0  0  0  0  0  0  0  0  0
    7.2790   52.0980  -16.1100 C   0  0  0  0  0  0  0  0  0  0  0  0
    7.0000   51.2980  -15.0040 C   0  0  0  0  0  0  0  0  0  0  0  0
    7.9690   49.9150  -14.6770 C   0  0  0  0  0  0  0  0  0  0  0  0
    5.9390   51.6160  -14.1560 C   0  0  0  0  0  0  0  0  0  0  0  0
    5.1570   52.7460  -14.4210 C   0  0  0  0  0  0  0  0  0  0  0  0
    3.5420   54.6150  -16.6480 N   0  0  0  0  0  0  0  0  0  0  0  0
    1.3390   55.4970  -23.1640 H   0  0  0  0  0  0  0  0  0  0  0  0
    1.9510   56.8940  -22.2700 H   0  0  0  0  0  0  0  0  0  0  0  0
    1.2650   57.0860  -23.9320 H   0  0  0  0  0  0  0  0  0  0  0  0
   -2.0040   58.1380  -23.7890 H   0  0  0  0  0  0  0  0  0  0  0  0
   -2.7300   60.3960  -23.2740 H   0  0  0  0  0  0  0  0  0  0  0  0
   -1.7640   61.6200  -21.3430 H   0  0  0  0  0  0  0  0  0  0  0  0
   -0.0130   60.5730  -19.9730 H   0  0  0  0  0  0  0  0  0  0  0  0
   -0.1600   57.5760  -18.7640 H   0  0  0  0  0  0  0  0  0  0  0  0
    3.4760   57.4210  -14.7080 H   0  0  0  0  0  0  0  0  0  0  0  0
    4.2260   59.6190  -14.2910 H   0  0  0  0  0  0  0  0  0  0  0  0
    5.7770   61.4980  -14.7410 H   0  0  0  0  0  0  0  0  0  0  0  0
    7.5370   59.3210  -17.9830 H   0  0  0  0  0  0  0  0  0  0  0  0
    6.0030   57.4210  -17.5710 H   0  0  0  0  0  0  0  0  0  0  0  0
    5.7610   56.0470  -14.5620 H   0  0  0  0  0  0  0  0  0  0  0  0
    6.7290   53.8470  -17.2360 H   0  0  0  0  0  0  0  0  0  0  0  0
    8.1090   51.8500  -16.7700 H   0  0  0  0  0  0  0  0  0  0  0  0
    5.7200   50.9930  -13.2930 H   0  0  0  0  0  0  0  0  0  0  0  0
    4.3320   52.9850  -13.7490 H   0  0  0  0  0  0  0  0  0  0  0  0
    3.3570   53.6940  -17.0350 H   0  0  0  0  0  0  0  0  0  0  0  0
  1  2  1  0  0  0  0
  1 36  1  0  0  0  0
  2  3  1  0  0  0  0
  3  8  1  0  0  0  0
  4  5  1  0  0  0  0
  4  3  2  0  0  0  0
  5  6  2  0  0  0  0
  6 40  1  0  0  0  0
  6  7  1  0  0  0  0
  7 41  1  0  0  0  0
  8  7  2  0  0  0  0
  8  9  1  0  0  0  0
  9 11  1  0  0  0  0
 10  9  2  0  0  0  0
 11 42  1  0  0  0  0
 11 12  1  0  0  0  0
 12 13  2  0  0  0  0
 12 16  1  0  0  0  0
 14 13  1  6  0  0  0
 14 15  1  0  0  0  0
 14 34  1  0  0  0  0
 15 16  1  1  0  0  0
 15 17  1  0  0  0  0
 17 25  1  0  0  0  0
 17 43  1  1  0  0  0
 18 17  1  0  0  0  0
 18 19  1  0  0  0  0
 19 44  1  0  0  0  0
 20 19  2  0  0  0  0
 20 45  1  0  0  0  0
 21 20  1  0  0  0  0
 22 21  1  0  0  0  0
 23 24  1  0  0  0  0
 23 21  2  0  0  0  0
 24 18  2  0  0  0  0
 25 48  1  0  0  0  0
 26 27  1  0  0  0  0
 26 25  2  0  0  0  0
 27 33  1  0  0  0  0
 28 29  1  0  0  0  0
 28 27  2  0  0  0  0
 29 30  2  0  0  0  0
 30 31  1  0  0  0  0
 30 32  1  0  0  0  0
 32 51  1  0  0  0  0
 33 32  2  0  0  0  0
 33 52  1  0  0  0  0
 34 26  1  0  0  0  0
 35  1  1  0  0  0  0
 37  1  1  0  0  0  0
 38  4  1  0  0  0  0
 39  5  1  0  0  0  0
 46 23  1  0  0  0  0
 47 24  1  0  0  0  0
 49 28  1  0  0  0  0
 50 29  1  0  0  0  0
 53 34  1  0  0  0  0
M  END
>  <Pose>
1

>  <Score>
-5.84

$$$$

 OpenBabel05112222383D

 53 57  0  0  1  0  0  0  0  0999 V2000
   -1.4460   56.2100  -24.5360 C   0  0  0  0  0  0  0  0  0  0  0  0
   -0.9140   57.0720  -23.5310 O   0  0  0  0  0  0  0  0  0  0  0  0
   -1.5130   58.2980  -23.3780 C   0  0  0  0  0  0  0  0  0  0  0  0
   -2.5620   58.7400  -24.2040 C   0  0  0  0  0  0  0  0  0  0  0  0
   -3.1680   59.9820  -24.0030 C   0  0  0  0  0  0  0  0  0  0  0  0
   -2.7460   60.7970  -22.9630 C   0  0  0  0  0  0  0  0  0  0  0  0
   -1.6990   60.3800  -22.1430 C   0  0  0  0  0  0  0  0  0  0  0  0
   -1.0540   59.1420  -22.3450 C   0  0  0  0  0  0  0  0  0  0  0  0
    0.1080   58.8510  -21.4290 C   0  0  0  0  0  0  0  0  0  0  0  0
    1.1850   59.3890  -21.6770 O   0  0  0  0  0  0  0  0  0  0  0  0
   -0.1080   57.9420  -20.4240 N   0  0  0  0  0  0  0  0  0  0  0  0
    0.8490   57.5090  -19.5470 C   0  0  0  0  0  0  0  0  0  0  0  0
    1.5220   56.3220  -19.6720 N   0  0  0  0  0  0  0  0  0  0  0  0
    2.3680   56.3440  -18.6810 C   0  0  2  0  0  0  0  0  0  0  0  0
    2.1600   57.4740  -17.9380 N   0  0  1  0  0  0  0  0  0  0  0  0
    1.2200   58.2630  -18.5020 N   0  0  0  0  0  0  0  0  0  0  0  0
    2.8690   57.7580  -16.6830 C   0  0  2  0  0  0  0  0  0  0  0  0
    3.3040   59.2140  -16.5960 C   0  0  0  0  0  0  0  0  0  0  0  0
    4.3980   59.6710  -17.3530 C   0  0  0  0  0  0  0  0  0  0  0  0
    4.7690   61.0160  -17.3160 C   0  0  0  0  0  0  0  0  0  0  0  0
    4.0500   61.9040  -16.5250 C   0  0  0  0  0  0  0  0  0  0  0  0
    4.3930   63.1980  -16.5090 F   0  0  0  0  0  0  0  0  0  0  0  0
    2.9780   61.4710  -15.7550 C   0  0  0  0  0  0  0  0  0  0  0  0
    2.6040   60.1290  -15.7880 C   0  0  0  0  0  0  0  0  0  0  0  0
    4.0530   56.8150  -16.4810 C   0  0  0  0  0  0  0  0  0  0  0  0
    4.2440   55.7680  -17.3050 C   0  0  0  0  0  0  0  0  0  0  0  0
    5.4190   54.8980  -17.1700 C   0  0  0  0  0  0  0  0  0  0  0  0
    5.4860   53.9430  -16.1450 C   0  0  0  0  0  0  0  0  0  0  0  0
    6.6040   53.1110  -16.0320 C   0  0  0  0  0  0  0  0  0  0  0  0
    7.6570   53.2290  -16.9370 C   0  0  0  0  0  0  0  0  0  0  0  0
    9.0270   52.1980  -16.8020 C   0  0  0  0  0  0  0  0  0  0  0  0
    7.6020   54.1770  -17.9590 C   0  0  0  0  0  0  0  0  0  0  0  0
    6.4830   55.0100  -18.0710 C   0  0  0  0  0  0  0  0  0  0  0  0
    3.3630   55.4990  -18.3340 N   0  0  0  0  0  0  0  0  0  0  0  0
   -0.9130   55.2570  -24.4830 H   0  0  0  0  0  0  0  0  0  0  0  0
   -1.2790   56.6320  -25.5320 H   0  0  0  0  0  0  0  0  0  0  0  0
   -2.5090   56.0040  -24.3660 H   0  0  0  0  0  0  0  0  0  0  0  0
   -2.9420   58.1390  -25.0250 H   0  0  0  0  0  0  0  0  0  0  0  0
   -3.9740   60.3050  -24.6570 H   0  0  0  0  0  0  0  0  0  0  0  0
   -3.2240   61.7570  -22.7900 H   0  0  0  0  0  0  0  0  0  0  0  0
   -1.3790   61.0380  -21.3350 H   0  0  0  0  0  0  0  0  0  0  0  0
   -0.9970   57.4690  -20.3490 H   0  0  0  0  0  0  0  0  0  0  0  0
    2.1360   57.5440  -15.8940 H   0  0  0  0  0  0  0  0  0  0  0  0
    4.9700   58.9850  -17.9760 H   0  0  0  0  0  0  0  0  0  0  0  0
    5.6080   61.3780  -17.9020 H   0  0  0  0  0  0  0  0  0  0  0  0
    2.4350   62.1810  -15.1390 H   0  0  0  0  0  0  0  0  0  0  0  0
    1.7660   59.7970  -15.1790 H   0  0  0  0  0  0  0  0  0  0  0  0
    4.7480   57.0310  -15.6750 H   0  0  0  0  0  0  0  0  0  0  0  0
    4.6680   53.8380  -15.4360 H   0  0  0  0  0  0  0  0  0  0  0  0
    6.6470   52.3690  -15.2360 H   0  0  0  0  0  0  0  0  0  0  0  0
    8.4210   54.2700  -18.6670 H   0  0  0  0  0  0  0  0  0  0  0  0
    6.4510   55.7450  -18.8750 H   0  0  0  0  0  0  0  0  0  0  0  0
    3.5570   54.6960  -18.9260 H   0  0  0  0  0  0  0  0  0  0  0  0
  1 35  1  0  0  0  0
  1 37  1  0  0  0  0
  1  2  1  0  0  0  0
  2  3  1  0  0  0  0
  3  8  1  0  0  0  0
  4  5  1  0  0  0  0
  4  3  2  0  0  0  0
  5  6  2  0  0  0  0
  6 40  1  0  0  0  0
  6  7  1  0  0  0  0
  7 41  1  0  0  0  0
  8  7  2  0  0  0  0
  8  9  1  0  0  0  0
  9 11  1  0  0  0  0
 10  9  2  0  0  0  0
 11 42  1  0  0  0  0
 11 12  1  0  0  0  0
 12 16  1  0  0  0  0
 13 12  2  0  0  0  0
 14 13  1  6  0  0  0
 14 34  1  0  0  0  0
 14 15  1  0  0  0  0
 15 16  1  1  0  0  0
 15 17  1  0  0  0  0
 17 18  1  0  0  0  0
 17 25  1  0  0  0  0
 17 43  1  1  0  0  0
 18 24  1  0  0  0  0
 19 20  1  0  0  0  0
 19 18  2  0  0  0  0
 20 21  2  0  0  0  0
 21 22  1  0  0  0  0
 21 23  1  0  0  0  0
 23 46  1  0  0  0  0
 24 23  2  0  0  0  0
 24 47  1  0  0  0  0
 25 48  1  0  0  0  0
 26 27  1  0  0  0  0
 26 25  2  0  0  0  0
 27 28  1  0  0  0  0
 28 29  2  0  0  0  0
 28 49  1  0  0  0  0
 29 50  1  0  0  0  0
 30 31  1  0  0  0  0
 30 29  1  0  0  0  0
 32 30  2  0  0  0  0
 33 32  1  0  0  0  0
 33 27  2  0  0  0  0
 34 26  1  0  0  0  0
 36  1  1  0  0  0  0
 38  4  1  0  0  0  0
 39  5  1  0  0  0  0
 44 19  1  0  0  0  0
 45 20  1  0  0  0  0
 51 32  1  0  0  0  0
 52 33  1  0  0  0  0
 53 34  1  0  0  0  0
M  END
>  <Pose>
1

>  <Score>
-5.74

$$$$

 OpenBabel05112222383D

 53 57  0  0  1  0  0  0  0  0999 V2000
    0.6720   60.9140  -19.3170 C   0  0  0  0  0  0  0  0  0  0  0  0
    0.2960   59.5390  -19.3620 O   0  0  0  0  0  0  0  0  0  0  0  0
    0.0440   59.0000  -20.6000 C   0  0  0  0  0  0  0  0  0  0  0  0
   -0.7780   59.6310  -21.5510 C   0  0  0  0  0  0  0  0  0  0  0  0
   -0.9910   59.0690  -22.8110 C   0  0  0  0  0  0  0  0  0  0  0  0
   -0.3720   57.8750  -23.1490 C   0  0  0  0  0  0  0  0  0  0  0  0
    0.4360   57.2290  -22.2140 C   0  0  0  0  0  0  0  0  0  0  0  0
    0.6420   57.7640  -20.9250 C   0  0  0  0  0  0  0  0  0  0  0  0
    1.4800   56.9260  -19.9940 C   0  0  0  0  0  0  0  0  0  0  0  0
    1.6520   55.7430  -20.2810 O   0  0  0  0  0  0  0  0  0  0  0  0
    1.9300   57.5330  -18.8480 N   0  0  0  0  0  0  0  0  0  0  0  0
    2.6420   56.9060  -17.8630 C   0  0  0  0  0  0  0  0  0  0  0  0
    2.5720   55.5620  -17.6030 N   0  0  0  0  0  0  0  0  0  0  0  0
    3.4450   55.3880  -16.6520 C   0  0  2  0  0  0  0  0  0  0  0  0
    3.9700   56.6010  -16.2970 N   0  0  1  0  0  0  0  0  0  0  0  0
    3.5040   57.5860  -17.0940 N   0  0  0  0  0  0  0  0  0  0  0  0
    4.9030   56.7810  -15.1770 C   0  0  2  0  0  0  0  0  0  0  0  0
    6.0380   57.7290  -15.5340 C   0  0  0  0  0  0  0  0  0  0  0  0
    6.2130   58.9250  -14.8130 C   0  0  0  0  0  0  0  0  0  0  0  0
    7.2830   59.7730  -15.1030 C   0  0  0  0  0  0  0  0  0  0  0  0
    8.1770   59.4300  -16.1100 C   0  0  0  0  0  0  0  0  0  0  0  0
    9.2160   60.2320  -16.3710 F   0  0  0  0  0  0  0  0  0  0  0  0
    8.0130   58.2630  -16.8470 C   0  0  0  0  0  0  0  0  0  0  0  0
    6.9460   57.4140  -16.5620 C   0  0  0  0  0  0  0  0  0  0  0  0
    5.4390   55.4430  -14.6720 C   0  0  0  0  0  0  0  0  0  0  0  0
    4.9300   54.2830  -15.1300 C   0  0  0  0  0  0  0  0  0  0  0  0
    5.4870   52.9910  -14.7110 C   0  0  0  0  0  0  0  0  0  0  0  0
    6.6330   52.4720  -15.3320 C   0  0  0  0  0  0  0  0  0  0  0  0
    7.1620   51.2460  -14.9170 C   0  0  0  0  0  0  0  0  0  0  0  0
    6.5530   50.5350  -13.8850 C   0  0  0  0  0  0  0  0  0  0  0  0
    7.2120   49.0320  -13.3700 C   0  0  0  0  0  0  0  0  0  0  0  0
    5.4110   51.0400  -13.2620 C   0  0  0  0  0  0  0  0  0  0  0  0
    4.8820   52.2670  -13.6790 C   0  0  0  0  0  0  0  0  0  0  0  0
    3.8950   54.2700  -16.0420 N   0  0  0  0  0  0  0  0  0  0  0  0
    0.9040   61.1680  -18.2790 H   0  0  0  0  0  0  0  0  0  0  0  0
   -0.1590   61.5510  -19.6390 H   0  0  0  0  0  0  0  0  0  0  0  0
    1.5710   61.1040  -19.9130 H   0  0  0  0  0  0  0  0  0  0  0  0
   -1.2770   60.5730  -21.3460 H   0  0  0  0  0  0  0  0  0  0  0  0
   -1.6340   59.5730  -23.5290 H   0  0  0  0  0  0  0  0  0  0  0  0
   -0.5190   57.4400  -24.1340 H   0  0  0  0  0  0  0  0  0  0  0  0
    0.9080   56.2890  -22.4970 H   0  0  0  0  0  0  0  0  0  0  0  0
    1.6610   58.4830  -18.6390 H   0  0  0  0  0  0  0  0  0  0  0  0
    4.2950   57.2190  -14.3740 H   0  0  0  0  0  0  0  0  0  0  0  0
    5.5190   59.2060  -14.0230 H   0  0  0  0  0  0  0  0  0  0  0  0
    7.4290   60.6940  -14.5470 H   0  0  0  0  0  0  0  0  0  0  0  0
    8.7190   58.0180  -17.6340 H   0  0  0  0  0  0  0  0  0  0  0  0
    6.8210   56.5030  -17.1460 H   0  0  0  0  0  0  0  0  0  0  0  0
    6.2570   55.4560  -13.9580 H   0  0  0  0  0  0  0  0  0  0  0  0
    7.1200   53.0200  -16.1340 H   0  0  0  0  0  0  0  0  0  0  0  0
    8.0540   50.8520  -15.4010 H   0  0  0  0  0  0  0  0  0  0  0  0
    4.9350   50.4880  -12.4570 H   0  0  0  0  0  0  0  0  0  0  0  0
    3.9910   52.6530  -13.1820 H   0  0  0  0  0  0  0  0  0  0  0  0
    3.5510   53.3660  -16.3550 H   0  0  0  0  0  0  0  0  0  0  0  0
  1 35  1  0  0  0  0
  2  1  1  0  0  0  0
  3  2  1  0  0  0  0
  4 38  1  0  0  0  0
  4  3  2  0  0  0  0
  5  4  1  0  0  0  0
  6  5  2  0  0  0  0
  6  7  1  0  0  0  0
  7  8  2  0  0  0  0
  8  3  1  0  0  0  0
  8  9  1  0  0  0  0
  9 11  1  0  0  0  0
 10  9  2  0  0  0  0
 11 42  1  0  0  0  0
 11 12  1  0  0  0  0
 12 13  2  0  0  0  0
 12 16  1  0  0  0  0
 14 13  1  6  0  0  0
 14 15  1  0  0  0  0
 14 34  1  0  0  0  0
 15 16  1  1  0  0  0
 15 17  1  0  0  0  0
 17 25  1  0  0  0  0
 17 43  1  1  0  0  0
 18 17  1  0  0  0  0
 18 19  1  0  0  0  0
 19 44  1  0  0  0  0
 20 19  2  0  0  0  0
 20 45  1  0  0  0  0
 21 20  1  0  0  0  0
 22 21  1  0  0  0  0
 23 24  1  0  0  0  0
 23 21  2  0  0  0  0
 24 18  2  0  0  0  0
 25 48  1  0  0  0  0
 26 27  1  0  0  0  0
 26 25  2  0  0  0  0
 27 33  1  0  0  0  0
 28 29  1  0  0  0  0
 28 27  2  0  0  0  0
 29 30  2  0  0  0  0
 30 31  1  0  0  0  0
 30 32  1  0  0  0  0
 32 51  1  0  0  0  0
 33 32  2  0  0  0  0
 33 52  1  0  0  0  0
 34 26  1  0  0  0  0
 36  1  1  0  0  0  0
 37  1  1  0  0  0  0
 39  5  1  0  0  0  0
 40  6  1  0  0  0  0
 41  7  1  0  0  0  0
 46 23  1  0  0  0  0
 47 24  1  0  0  0  0
 49 28  1  0  0  0  0
 50 29  1  0  0  0  0
 53 34  1  0  0  0  0
M  END
>  <Pose>
1

>  <Score>
-5.69

$$$$

 OpenBabel05112222383D

 53 57  0  0  1  0  0  0  0  0999 V2000
    6.9000   51.8500  -15.6930 C   0  0  0  0  0  0  0  0  0  0  0  0
    5.6490   52.4200  -15.3120 O   0  0  0  0  0  0  0  0  0  0  0  0
    5.6760   53.4020  -14.3510 C   0  0  0  0  0  0  0  0  0  0  0  0
    5.9870   53.1410  -13.0050 C   0  0  0  0  0  0  0  0  0  0  0  0
    6.0320   54.1670  -12.0600 C   0  0  0  0  0  0  0  0  0  0  0  0
    5.7840   55.4750  -12.4480 C   0  0  0  0  0  0  0  0  0  0  0  0
    5.4610   55.7500  -13.7760 C   0  0  0  0  0  0  0  0  0  0  0  0
    5.3810   54.7250  -14.7420 C   0  0  0  0  0  0  0  0  0  0  0  0
    4.9530   55.1570  -16.1220 C   0  0  0  0  0  0  0  0  0  0  0  0
    5.8190   55.5760  -16.8870 O   0  0  0  0  0  0  0  0  0  0  0  0
    3.6090   55.1180  -16.3950 N   0  0  0  0  0  0  0  0  0  0  0  0
    3.0410   55.5360  -17.5660 C   0  0  0  0  0  0  0  0  0  0  0  0
    1.7610   56.0170  -17.6680 N   0  0  0  0  0  0  0  0  0  0  0  0
    1.6590   56.3550  -18.9220 C   0  0  2  0  0  0  0  0  0  0  0  0
    2.8160   56.0200  -19.5720 N   0  0  1  0  0  0  0  0  0  0  0  0
    3.7370   55.5350  -18.7110 N   0  0  0  0  0  0  0  0  0  0  0  0
    2.9970   56.1610  -21.0230 C   0  0  2  0  0  0  0  0  0  0  0  0
    4.3670   56.7270  -21.3690 C   0  0  0  0  0  0  0  0  0  0  0  0
    4.6550   58.0820  -21.1220 C   0  0  0  0  0  0  0  0  0  0  0  0
    5.9260   58.5930  -21.3890 C   0  0  0  0  0  0  0  0  0  0  0  0
    6.9080   57.7540  -21.9040 C   0  0  0  0  0  0  0  0  0  0  0  0
    8.1330   58.2410  -22.1380 F   0  0  0  0  0  0  0  0  0  0  0  0
    6.6410   56.4180  -22.1720 C   0  0  0  0  0  0  0  0  0  0  0  0
    5.3730   55.9030  -21.9080 C   0  0  0  0  0  0  0  0  0  0  0  0
    1.8820   56.9950  -21.6500 C   0  0  0  0  0  0  0  0  0  0  0  0
    0.8090   57.3610  -20.9230 C   0  0  0  0  0  0  0  0  0  0  0  0
   -0.2330   58.2260  -21.4900 C   0  0  0  0  0  0  0  0  0  0  0  0
   -0.5430   59.4570  -20.8930 C   0  0  0  0  0  0  0  0  0  0  0  0
   -1.5290   60.2790  -21.4480 C   0  0  0  0  0  0  0  0  0  0  0  0
   -2.2080   59.8780  -22.5970 C   0  0  0  0  0  0  0  0  0  0  0  0
   -3.4130   60.8940  -23.2840 C   0  0  0  0  0  0  0  0  0  0  0  0
   -1.9100   58.6530  -23.1980 C   0  0  0  0  0  0  0  0  0  0  0  0
   -0.9240   57.8320  -22.6410 C   0  0  0  0  0  0  0  0  0  0  0  0
    0.6720   56.9720  -19.6060 N   0  0  0  0  0  0  0  0  0  0  0  0
    6.7180   51.1440  -16.5070 H   0  0  0  0  0  0  0  0  0  0  0  0
    7.3390   51.2930  -14.8580 H   0  0  0  0  0  0  0  0  0  0  0  0
    7.5910   52.6150  -16.0660 H   0  0  0  0  0  0  0  0  0  0  0  0
    6.2030   52.1390  -12.6480 H   0  0  0  0  0  0  0  0  0  0  0  0
    6.2710   53.9410  -11.0240 H   0  0  0  0  0  0  0  0  0  0  0  0
    5.8340   56.2820  -11.7220 H   0  0  0  0  0  0  0  0  0  0  0  0
    5.2630   56.7840  -14.0580 H   0  0  0  0  0  0  0  0  0  0  0  0
    2.9530   54.8530  -15.6740 H   0  0  0  0  0  0  0  0  0  0  0  0
    2.9090   55.1400  -21.4170 H   0  0  0  0  0  0  0  0  0  0  0  0
    3.8940   58.7490  -20.7210 H   0  0  0  0  0  0  0  0  0  0  0  0
    6.1590   59.6350  -21.1960 H   0  0  0  0  0  0  0  0  0  0  0  0
    7.4200   55.7830  -22.5810 H   0  0  0  0  0  0  0  0  0  0  0  0
    5.1690   54.8560  -22.1250 H   0  0  0  0  0  0  0  0  0  0  0  0
    1.9940   57.3050  -22.6840 H   0  0  0  0  0  0  0  0  0  0  0  0
   -0.0160   59.7840  -20.0000 H   0  0  0  0  0  0  0  0  0  0  0  0
   -1.7610   61.2350  -20.9820 H   0  0  0  0  0  0  0  0  0  0  0  0
   -2.4370   58.3390  -24.0940 H   0  0  0  0  0  0  0  0  0  0  0  0
   -0.6980   56.8790  -23.1210 H   0  0  0  0  0  0  0  0  0  0  0  0
   -0.1570   57.2790  -19.1050 H   0  0  0  0  0  0  0  0  0  0  0  0
  1  2  1  0  0  0  0
  1 36  1  0  0  0  0
  2  3  1  0  0  0  0
  3  4  1  0  0  0  0
  4 38  1  0  0  0  0
  4  5  2  0  0  0  0
  5 39  1  0  0  0  0
  6  5  1  0  0  0  0
  6 40  1  0  0  0  0
  7  6  2  0  0  0  0
  8  3  2  0  0  0  0
  8  7  1  0  0  0  0
  9  8  1  0  0  0  0
 10  9  2  0  0  0  0
 11  9  1  0  0  0  0
 11 42  1  0  0  0  0
 12 11  1  0  0  0  0
 13 12  2  0  0  0  0
 14 13  1  1  0  0  0
 15 14  1  0  0  0  0
 15 16  1  6  0  0  0
 16 12  1  0  0  0  0
 17 43  1  6  0  0  0
 17 15  1  0  0  0  0
 18 19  1  0  0  0  0
 18 17  1  0  0  0  0
 19 44  1  0  0  0  0
 20 45  1  0  0  0  0
 20 19  2  0  0  0  0
 21 20  1  0  0  0  0
 22 21  1  0  0  0  0
 23 24  1  0  0  0  0
 23 21  2  0  0  0  0
 24 18  2  0  0  0  0
 25 17  1  0  0  0  0
 25 26  2  0  0  0  0
 26 34  1  0  0  0  0
 27 26  1  0  0  0  0
 27 28  1  0  0  0  0
 28 49  1  0  0  0  0
 29 50  1  0  0  0  0
 29 28  2  0  0  0  0
 30 29  1  0  0  0  0
 31 30  1  0  0  0  0
 32 33  1  0  0  0  0
 32 30  2  0  0  0  0
 33 27  2  0  0  0  0
 34 53  1  0  0  0  0
 34 14  1  0  0  0  0
 35  1  1  0  0  0  0
 37  1  1  0  0  0  0
 41  7  1  0  0  0  0
 46 23  1  0  0  0  0
 47 24  1  0  0  0  0
 48 25  1  0  0  0  0
 51 32  1  0  0  0  0
 52 33  1  0  0  0  0
M  END
>  <Pose>
1

>  <Score>
-5.62

$$$$

 OpenBabel05112222383D

 53 57  0  0  1  0  0  0  0  0999 V2000
    2.6700   56.3520  -22.4730 C   0  0  0  0  0  0  0  0  0  0  0  0
    1.4270   56.3570  -21.7720 O   0  0  0  0  0  0  0  0  0  0  0  0
    0.7290   57.5400  -21.7460 C   0  0  0  0  0  0  0  0  0  0  0  0
    0.2250   58.1510  -22.9080 C   0  0  0  0  0  0  0  0  0  0  0  0
   -0.5050   59.3390  -22.8420 C   0  0  0  0  0  0  0  0  0  0  0  0
   -0.7580   59.9280  -21.6120 C   0  0  0  0  0  0  0  0  0  0  0  0
   -0.2550   59.3420  -20.4520 C   0  0  0  0  0  0  0  0  0  0  0  0
    0.5090   58.1570  -20.4970 C   0  0  0  0  0  0  0  0  0  0  0  0
    1.0480   57.6740  -19.1740 C   0  0  0  0  0  0  0  0  0  0  0  0
    0.6720   58.2500  -18.1550 O   0  0  0  0  0  0  0  0  0  0  0  0
    1.9810   56.6690  -19.2150 N   0  0  0  0  0  0  0  0  0  0  0  0
    2.6240   56.1590  -18.1210 C   0  0  0  0  0  0  0  0  0  0  0  0
    2.5740   54.8410  -17.7470 N   0  0  0  0  0  0  0  0  0  0  0  0
    3.3650   54.7850  -16.7140 C   0  0  2  0  0  0  0  0  0  0  0  0
    3.8200   56.0430  -16.4270 N   0  0  1  0  0  0  0  0  0  0  0  0
    3.3940   56.9370  -17.3470 N   0  0  0  0  0  0  0  0  0  0  0  0
    4.6460   56.3570  -15.2540 C   0  0  2  0  0  0  0  0  0  0  0  0
    5.7780   57.3130  -15.5990 C   0  0  0  0  0  0  0  0  0  0  0  0
    6.7860   56.9200  -16.4990 C   0  0  0  0  0  0  0  0  0  0  0  0
    7.7980   57.8110  -16.8580 C   0  0  0  0  0  0  0  0  0  0  0  0
    7.8060   59.0930  -16.3200 C   0  0  0  0  0  0  0  0  0  0  0  0
    8.7640   59.9540  -16.6830 F   0  0  0  0  0  0  0  0  0  0  0  0
    6.8310   59.4960  -15.4160 C   0  0  0  0  0  0  0  0  0  0  0  0
    5.8190   58.6090  -15.0530 C   0  0  0  0  0  0  0  0  0  0  0  0
    5.1780   55.0900  -14.5870 C   0  0  0  0  0  0  0  0  0  0  0  0
    4.7460   53.8760  -14.9800 C   0  0  0  0  0  0  0  0  0  0  0  0
    5.3040   52.6480  -14.4000 C   0  0  0  0  0  0  0  0  0  0  0  0
    4.5240   51.8330  -13.5660 C   0  0  0  0  0  0  0  0  0  0  0  0
    5.0620   50.6590  -13.0290 C   0  0  0  0  0  0  0  0  0  0  0  0
    6.3740   50.2940  -13.3210 C   0  0  0  0  0  0  0  0  0  0  0  0
    7.0290   48.8440  -12.6680 C   0  0  0  0  0  0  0  0  0  0  0  0
    7.1600   51.0980  -14.1480 C   0  0  0  0  0  0  0  0  0  0  0  0
    6.6220   52.2730  -14.6840 C   0  0  0  0  0  0  0  0  0  0  0  0
    3.7950   53.7420  -15.9710 N   0  0  0  0  0  0  0  0  0  0  0  0
    3.0620   55.3320  -22.4630 H   0  0  0  0  0  0  0  0  0  0  0  0
    3.3980   56.9960  -21.9690 H   0  0  0  0  0  0  0  0  0  0  0  0
    2.5400   56.6460  -23.5210 H   0  0  0  0  0  0  0  0  0  0  0  0
    0.3820   57.7280  -23.8950 H   0  0  0  0  0  0  0  0  0  0  0  0
   -0.8810   59.7960  -23.7540 H   0  0  0  0  0  0  0  0  0  0  0  0
   -1.3400   60.8440  -21.5520 H   0  0  0  0  0  0  0  0  0  0  0  0
   -0.4610   59.8240  -19.4960 H   0  0  0  0  0  0  0  0  0  0  0  0
    2.3090   56.3180  -20.1030 H   0  0  0  0  0  0  0  0  0  0  0  0
    3.9570   56.8390  -14.5480 H   0  0  0  0  0  0  0  0  0  0  0  0
    6.7920   55.9180  -16.9260 H   0  0  0  0  0  0  0  0  0  0  0  0
    8.5760   57.5180  -17.5560 H   0  0  0  0  0  0  0  0  0  0  0  0
    6.8610   60.4990  -15.0020 H   0  0  0  0  0  0  0  0  0  0  0  0
    5.0620   58.9310  -14.3410 H   0  0  0  0  0  0  0  0  0  0  0  0
    5.9300   55.1960  -13.8120 H   0  0  0  0  0  0  0  0  0  0  0  0
    3.4980   52.1050  -13.3350 H   0  0  0  0  0  0  0  0  0  0  0  0
    4.4490   50.0300  -12.3850 H   0  0  0  0  0  0  0  0  0  0  0  0
    8.1830   50.8140  -14.3780 H   0  0  0  0  0  0  0  0  0  0  0  0
    7.2450   52.8910  -15.3310 H   0  0  0  0  0  0  0  0  0  0  0  0
    3.5080   52.8020  -16.2280 H   0  0  0  0  0  0  0  0  0  0  0  0
  1 35  1  0  0  0  0
  1 36  1  0  0  0  0
  1  2  1  0  0  0  0
  2  3  1  0  0  0  0
  3  8  1  0  0  0  0
  4  5  1  0  0  0  0
  4  3  2  0  0  0  0
  5  6  2  0  0  0  0
  6 40  1  0  0  0  0
  6  7  1  0  0  0  0
  7 41  1  0  0  0  0
  8  7  2  0  0  0  0
  8  9  1  0  0  0  0
  9 10  2  0  0  0  0
 11  9  1  0  0  0  0
 11 12  1  0  0  0  0
 12 13  2  0  0  0  0
 12 16  1  0  0  0  0
 14 13  1  6  0  0  0
 14 15  1  0  0  0  0
 14 34  1  0  0  0  0
 15 16  1  1  0  0  0
 15 17  1  0  0  0  0
 17 25  1  0  0  0  0
 17 43  1  1  0  0  0
 18 17  1  0  0  0  0
 18 24  1  0  0  0  0
 19 18  2  0  0  0  0
 20 19  1  0  0  0  0
 20 21  2  0  0  0  0
 21 23  1  0  0  0  0
 22 21  1  0  0  0  0
 23 24  2  0  0  0  0
 23 46  1  0  0  0  0
 24 47  1  0  0  0  0
 25 48  1  0  0  0  0
 26 25  2  0  0  0  0
 26 27  1  0  0  0  0
 27 28  1  0  0  0  0
 28 49  1  0  0  0  0
 28 29  2  0  0  0  0
 29 50  1  0  0  0  0
 30 29  1  0  0  0  0
 30 31  1  0  0  0  0
 32 30  2  0  0  0  0
 33 27  2  0  0  0  0
 33 32  1  0  0  0  0
 34 26  1  0  0  0  0
 37  1  1  0  0  0  0
 38  4  1  0  0  0  0
 39  5  1  0  0  0  0
 42 11  1  0  0  0  0
 44 19  1  0  0  0  0
 45 20  1  0  0  0  0
 51 32  1  0  0  0  0
 52 33  1  0  0  0  0
 53 34  1  0  0  0  0
M  END
>  <Pose>
1

>  <Score>
-5.48

$$$$

 OpenBabel05112222383D

 53 57  0  0  1  0  0  0  0  0999 V2000
    0.2750   56.4460  -24.5430 C   0  0  0  0  0  0  0  0  0  0  0  0
    0.5100   57.8530  -24.5320 O   0  0  0  0  0  0  0  0  0  0  0  0
   -0.5940   58.6710  -24.5230 C   0  0  0  0  0  0  0  0  0  0  0  0
   -1.1080   59.2660  -25.6900 C   0  0  0  0  0  0  0  0  0  0  0  0
   -2.2480   60.0700  -25.6490 C   0  0  0  0  0  0  0  0  0  0  0  0
   -2.9040   60.2810  -24.4460 C   0  0  0  0  0  0  0  0  0  0  0  0
   -2.4000   59.7100  -23.2780 C   0  0  0  0  0  0  0  0  0  0  0  0
   -1.2330   58.9170  -23.2900 C   0  0  0  0  0  0  0  0  0  0  0  0
   -0.7630   58.4220  -21.9460 C   0  0  0  0  0  0  0  0  0  0  0  0
   -1.5240   58.5450  -20.9890 O   0  0  0  0  0  0  0  0  0  0  0  0
    0.5190   57.9370  -21.8780 N   0  0  0  0  0  0  0  0  0  0  0  0
    1.1300   57.5120  -20.7310 C   0  0  0  0  0  0  0  0  0  0  0  0
    1.7760   56.3090  -20.6050 N   0  0  0  0  0  0  0  0  0  0  0  0
    2.2590   56.3440  -19.3960 C   0  0  2  0  0  0  0  0  0  0  0  0
    1.8540   57.5000  -18.7840 N   0  0  1  0  0  0  0  0  0  0  0  0
    1.1670   58.2890  -19.6390 N   0  0  0  0  0  0  0  0  0  0  0  0
    2.1280   57.8070  -17.3750 C   0  0  2  0  0  0  0  0  0  0  0  0
    2.5520   59.2570  -17.1840 C   0  0  0  0  0  0  0  0  0  0  0  0
    1.6600   60.1840  -16.6160 C   0  0  0  0  0  0  0  0  0  0  0  0
    2.0610   61.5020  -16.3920 C   0  0  0  0  0  0  0  0  0  0  0  0
    3.3490   61.8950  -16.7360 C   0  0  0  0  0  0  0  0  0  0  0  0
    3.7400   63.1530  -16.4980 F   0  0  0  0  0  0  0  0  0  0  0  0
    4.2400   61.0010  -17.3150 C   0  0  0  0  0  0  0  0  0  0  0  0
    3.8440   59.6840  -17.5420 C   0  0  0  0  0  0  0  0  0  0  0  0
    3.1590   56.8490  -16.7810 C   0  0  0  0  0  0  0  0  0  0  0  0
    3.5760   55.7740  -17.4780 C   0  0  0  0  0  0  0  0  0  0  0  0
    4.6210   54.8870  -16.9520 C   0  0  0  0  0  0  0  0  0  0  0  0
    4.4510   54.2340  -15.7220 C   0  0  0  0  0  0  0  0  0  0  0  0
    5.4470   53.3820  -15.2350 C   0  0  0  0  0  0  0  0  0  0  0  0
    6.6130   53.1780  -15.9710 C   0  0  0  0  0  0  0  0  0  0  0  0
    7.8320   52.1220  -15.3760 C   0  0  0  0  0  0  0  0  0  0  0  0
    6.7940   53.8250  -17.1950 C   0  0  0  0  0  0  0  0  0  0  0  0
    5.7960   54.6780  -17.6800 C   0  0  0  0  0  0  0  0  0  0  0  0
    3.0660   55.4920  -18.7280 N   0  0  0  0  0  0  0  0  0  0  0  0
    1.2420   55.9400  -24.4760 H   0  0  0  0  0  0  0  0  0  0  0  0
   -0.1980   56.1430  -25.4830 H   0  0  0  0  0  0  0  0  0  0  0  0
   -0.3230   56.1330  -23.6790 H   0  0  0  0  0  0  0  0  0  0  0  0
   -0.6440   59.1250  -26.6610 H   0  0  0  0  0  0  0  0  0  0  0  0
   -2.6260   60.5230  -26.5630 H   0  0  0  0  0  0  0  0  0  0  0  0
   -3.8020   60.8920  -24.4090 H   0  0  0  0  0  0  0  0  0  0  0  0
   -2.9270   59.8930  -22.3420 H   0  0  0  0  0  0  0  0  0  0  0  0
    1.1150   57.9620  -22.6930 H   0  0  0  0  0  0  0  0  0  0  0  0
    1.1750   57.6300  -16.8590 H   0  0  0  0  0  0  0  0  0  0  0  0
    0.6480   59.8890  -16.3430 H   0  0  0  0  0  0  0  0  0  0  0  0
    1.3820   62.2220  -15.9470 H   0  0  0  0  0  0  0  0  0  0  0  0
    5.2390   61.3310  -17.5830 H   0  0  0  0  0  0  0  0  0  0  0  0
    4.5460   58.9900  -18.0000 H   0  0  0  0  0  0  0  0  0  0  0  0
    3.5630   57.0750  -15.8000 H   0  0  0  0  0  0  0  0  0  0  0  0
    3.5440   54.3810  -15.1410 H   0  0  0  0  0  0  0  0  0  0  0  0
    5.3060   52.8750  -14.2820 H   0  0  0  0  0  0  0  0  0  0  0  0
    7.7010   53.6660  -17.7700 H   0  0  0  0  0  0  0  0  0  0  0  0
    5.9480   55.1750  -18.6390 H   0  0  0  0  0  0  0  0  0  0  0  0
    3.4170   54.6690  -19.2090 H   0  0  0  0  0  0  0  0  0  0  0  0
  1  2  1  0  0  0  0
  1 35  1  0  0  0  0
  1 37  1  0  0  0  0
  2  3  1  0  0  0  0
  3  8  1  0  0  0  0
  4  5  1  0  0  0  0
  4  3  2  0  0  0  0
  5  6  2  0  0  0  0
  6 40  1  0  0  0  0
  6  7  1  0  0  0  0
  7 41  1  0  0  0  0
  8  7  2  0  0  0  0
  8  9  1  0  0  0  0
  9 11  1  0  0  0  0
  9 10  2  0  0  0  0
 11 12  1  0  0  0  0
 12 13  2  0  0  0  0
 12 16  1  0  0  0  0
 14 13  1  6  0  0  0
 14 15  1  0  0  0  0
 14 34  1  0  0  0  0
 15 16  1  1  0  0  0
 15 17  1  0  0  0  0
 17 18  1  0  0  0  0
 17 43  1  1  0  0  0
 17 25  1  0  0  0  0
 18 19  1  0  0  0  0
 19 20  2  0  0  0  0
 19 44  1  0  0  0  0
 20 45  1  0  0  0  0
 21 22  1  0  0  0  0
 21 20  1  0  0  0  0
 23 21  2  0  0  0  0
 24 23  1  0  0  0  0
 24 18  2  0  0  0  0
 25 48  1  0  0  0  0
 26 27  1  0  0  0  0
 26 25  2  0  0  0  0
 27 28  1  0  0  0  0
 28 29  2  0  0  0  0
 28 49  1  0  0  0  0
 29 50  1  0  0  0  0
 30 31  1  0  0  0  0
 30 29  1  0  0  0  0
 32 30  2  0  0  0  0
 33 32  1  0  0  0  0
 33 27  2  0  0  0  0
 34 26  1  0  0  0  0
 36  1  1  0  0  0  0
 38  4  1  0  0  0  0
 39  5  1  0  0  0  0
 42 11  1  0  0  0  0
 46 23  1  0  0  0  0
 47 24  1  0  0  0  0
 51 32  1  0  0  0  0
 52 33  1  0  0  0  0
 53 34  1  0  0  0  0
M  END
>  <Pose>
1

>  <Score>
-5.33

$$$$
