@<TRIPOS>MOLECULE
*****
 53 57 0 0 0
SMALL
GASTEIGER

@<TRIPOS>ATOM
      1 C           0.6932    0.3384    0.0069 C.3     1  UNL1        0.0788
      2 O           1.9783    0.4132   -0.6076 O.3     1  UNL1       -0.4944
      3 C           2.8653    1.3271   -0.0922 C.ar    1  UNL1        0.1322
      4 C           2.5234    2.2206    0.9387 C.ar    1  UNL1       -0.0192
      5 C           3.4578    3.1177    1.4582 C.ar    1  UNL1       -0.0583
      6 C           4.7551    3.1265    0.9682 C.ar    1  UNL1       -0.0608
      7 C           5.1075    2.2568   -0.0629 C.ar    1  UNL1       -0.0461
      8 C           4.1722    1.3615   -0.6226 C.ar    1  UNL1        0.0786
      9 C           4.6707    0.5297   -1.7772 C.2     1  UNL1        0.2540
     10 O           5.8527    0.6377   -2.0955 O.2     1  UNL1       -0.2696
     11 N           3.7420   -0.2348   -2.4372 N.am    1  UNL1       -0.2491
     12 C           4.0034   -0.9936   -3.5443 C.ar    1  UNL1        0.2425
     13 N           5.2621   -1.3684   -3.9377 N.ar    1  UNL1       -0.1796
     14 C           5.0469   -2.1218   -4.9784 C.ar    1  UNL1        0.2203
     15 N           3.7055   -2.1401   -5.2495 N.ar    1  UNL1       -0.2197
     16 N           3.0089   -1.4605   -4.3127 N.ar    1  UNL1       -0.1311
     17 C           3.1275   -2.8049   -6.4249 C.3     1  UNL1        0.1012
     18 C           1.8597   -3.5706   -6.0750 C.ar    1  UNL1       -0.0189
     19 C           0.6416   -3.2429   -6.6985 C.ar    1  UNL1       -0.0535
     20 C          -0.5128   -3.9758   -6.4192 C.ar    1  UNL1       -0.0261
     21 C          -0.4535   -5.0323   -5.5184 C.ar    1  UNL1        0.1234
     22 F          -1.5567   -5.7492   -5.2696 F       1  UNL1       -0.2055
     23 C           0.7342   -5.3618   -4.8776 C.ar    1  UNL1       -0.0261
     24 C           1.8895   -4.6325   -5.1524 C.ar    1  UNL1       -0.0535
     25 C           4.1458   -3.7098   -7.1159 C.2     1  UNL1       -0.0335
     26 C           5.4383   -3.7000   -6.7381 C.2     1  UNL1        0.0391
     27 C           6.4125   -4.6183   -7.3410 C.ar    1  UNL1       -0.0039
     28 C           7.1366   -4.2424   -8.4820 C.ar    1  UNL1       -0.0515
     29 C           8.0709   -5.1197   -9.0412 C.ar    1  UNL1       -0.0428
     30 C           8.2862   -6.3708   -8.4670 C.ar    1  UNL1        0.0410
     31 CL          9.4430   -7.4442   -9.1508 Cl      1  UNL1       -0.0835
     32 C           7.5693   -6.7565   -7.3334 C.ar    1  UNL1       -0.0428
     33 C           6.6339   -5.8778   -6.7749 C.ar    1  UNL1       -0.0515
     34 N           5.8845   -2.8567   -5.7413 N.pl3   1  UNL1       -0.2834
     35 H           0.1376   -0.4760   -0.4659 H       1  UNL1        0.0660
     36 H           0.1336    1.2652   -0.1580 H       1  UNL1        0.0660
     37 H           0.7724    0.1080    1.0755 H       1  UNL1        0.0660
     38 H           1.5274    2.2488    1.3695 H       1  UNL1        0.0654
     39 H           3.1698    3.8022    2.2525 H       1  UNL1        0.0619
     40 H           5.4927    3.8107    1.3790 H       1  UNL1        0.0618
     41 H           6.1303    2.2842   -0.4380 H       1  UNL1        0.0626
     42 H           2.7682   -0.1906   -2.1724 H       1  UNL1        0.1581
     43 H           2.8858   -1.9876   -7.1176 H       1  UNL1        0.0641
     44 H           0.5818   -2.4167   -7.4047 H       1  UNL1        0.0622
     45 H          -1.4550   -3.7341   -6.9009 H       1  UNL1        0.0646
     46 H           0.7559   -6.1860   -4.1722 H       1  UNL1        0.0646
     47 H           2.8154   -4.8935   -4.6429 H       1  UNL1        0.0622
     48 H           3.7919   -4.3764   -7.8959 H       1  UNL1        0.0615
     49 H           6.9817   -3.2671   -8.9357 H       1  UNL1        0.0624
     50 H           8.6326   -4.8194   -9.9247 H       1  UNL1        0.0632
     51 H           7.7359   -7.7310   -6.8832 H       1  UNL1        0.0632
     52 H           6.0822   -6.1896   -5.8874 H       1  UNL1        0.0624
     53 H           6.8702   -2.8925   -5.4957 H       1  UNL1        0.1550
@<TRIPOS>BOND
     1     1     2    1
     2     2     3    1
     3     3     4   ar
     4     4     5   ar
     5     5     6   ar
     6     6     7   ar
     7     7     8   ar
     8     3     8   ar
     9     8     9    1
    10     9    10    2
    11     9    11   am
    12    11    12    1
    13    12    13   ar
    14    13    14   ar
    15    14    15   ar
    16    15    16   ar
    17    12    16   ar
    18    15    17    1
    19    17    18    1
    20    18    19   ar
    21    19    20   ar
    22    20    21   ar
    23    21    22    1
    24    21    23   ar
    25    23    24   ar
    26    18    24   ar
    27    17    25    1
    28    25    26    2
    29    26    27    1
    30    27    28   ar
    31    28    29   ar
    32    29    30   ar
    33    30    31    1
    34    30    32   ar
    35    32    33   ar
    36    27    33   ar
    37    26    34    1
    38    14    34    1
    39     1    35    1
    40     1    36    1
    41     1    37    1
    42     4    38    1
    43     5    39    1
    44     6    40    1
    45     7    41    1
    46    11    42    1
    47    17    43    1
    48    19    44    1
    49    20    45    1
    50    23    46    1
    51    24    47    1
    52    25    48    1
    53    28    49    1
    54    29    50    1
    55    32    51    1
    56    33    52    1
    57    34    53    1
