@<TRIPOS>MOLECULE
*****
 50 53 0 0 0
SMALL
GASTEIGER

@<TRIPOS>ATOM
      1 O           4.3240    2.7581    0.0580 O.2     1  UNL1       -0.2668
      2 C           4.1990    1.5373    0.0945 C.2     1  UNL1        0.2794
      3 N           3.4064    0.8578   -0.8072 N.am    1  UNL1       -0.3069
      4 C           2.5978    1.5583   -1.7926 C.3     1  UNL1        0.0346
      5 C           3.4034    2.3225   -2.8973 C.3     1  UNL1        0.0844
      6 C           4.2420    1.3379   -3.6896 C.ar    1  UNL1        0.1234
      7 C           4.0710    0.0309   -4.1066 C.ar    1  UNL1       -0.0191
      8 C           5.1809   -0.2821   -4.9293 C.ar    1  UNL1       -0.0236
      9 C           5.9667    0.8440   -4.9581 C.ar    1  UNL1        0.0921
     10 O           5.4277    1.8179   -4.1832 O.2     1  UNL1       -0.4662
     11 N           2.5104    3.0966   -3.8202 N.3     1  UNL1       -0.2885
     12 C           3.2896    3.8394   -4.8561 C.3     1  UNL1        0.0154
     13 C           4.1879    4.9686   -4.2978 C.3     1  UNL1        0.0250
     14 N           3.3502    5.9339   -3.5664 N.pl3   1  UNL1       -0.3274
     15 C           3.5760    7.2969   -3.6353 C.ar    1  UNL1        0.0299
     16 C           3.9986    7.9051   -4.8309 C.ar    1  UNL1       -0.0379
     17 C           4.1288    9.2922   -4.9513 C.ar    1  UNL1       -0.0247
     18 C           3.8414   10.1000   -3.8648 C.ar    1  UNL1        0.1235
     19 F           3.9339   11.4300   -3.9846 F       1  UNL1       -0.2055
     20 C           3.4515    9.5436   -2.6577 C.ar    1  UNL1       -0.0247
     21 C           3.3267    8.1535   -2.5484 C.ar    1  UNL1       -0.0379
     22 C           2.4642    5.3477   -2.5460 C.3     1  UNL1        0.0250
     23 C           1.6968    4.1262   -3.1206 C.3     1  UNL1        0.0154
     24 C           4.8398    0.6994    1.0841 C.ar    1  UNL1        0.1890
     25 C           5.7252    1.0172    2.0950 C.ar    1  UNL1       -0.0113
     26 C           6.0155   -0.1856    2.7785 C.ar    1  UNL1       -0.0231
     27 C           5.2937   -1.1692    2.1426 C.ar    1  UNL1        0.0928
     28 O           4.5787   -0.6463    1.1120 O.2     1  UNL1       -0.4583
     29 H           3.2848   -0.1380   -0.6623 H       1  UNL1        0.1492
     30 H           1.9849    2.2529   -1.2113 H       1  UNL1        0.0482
     31 H           1.9208    0.8219   -2.2406 H       1  UNL1        0.0482
     32 H           4.0947    3.0047   -2.3923 H       1  UNL1        0.0559
     33 H           3.2312   -0.6076   -3.8743 H       1  UNL1        0.0652
     34 H           5.3738   -1.2062   -5.4553 H       1  UNL1        0.0649
     35 H           6.8876    1.1037   -5.4616 H       1  UNL1        0.1029
     36 H           2.5697    4.2908   -5.5538 H       1  UNL1        0.0442
     37 H           3.8732    3.1621   -5.4857 H       1  UNL1        0.0442
     38 H           4.7336    5.4118   -5.1349 H       1  UNL1        0.0476
     39 H           4.9563    4.5724   -3.6235 H       1  UNL1        0.0476
     40 H           4.1811    7.3114   -5.7208 H       1  UNL1        0.0637
     41 H           4.4292    9.7376   -5.8931 H       1  UNL1        0.0647
     42 H           3.2339   10.1870   -1.8121 H       1  UNL1        0.0647
     43 H           3.0339    7.7497   -1.5826 H       1  UNL1        0.0637
     44 H           1.6986    6.0681   -2.2325 H       1  UNL1        0.0476
     45 H           3.0425    5.0631   -1.6598 H       1  UNL1        0.0476
     46 H           0.9721    4.5084   -3.8542 H       1  UNL1        0.0442
     47 H           1.0688    3.6841   -2.3420 H       1  UNL1        0.0442
     48 H           6.1039    2.0097    2.3021 H       1  UNL1        0.0657
     49 H           6.6677   -0.3189    3.6289 H       1  UNL1        0.0649
     50 H           5.1855   -2.2337    2.2981 H       1  UNL1        0.1029
@<TRIPOS>BOND
     1     1     2    2
     2     2     3   am
     3     3     4    1
     4     4     5    1
     5     5     6    1
     6     6     7   ar
     7     7     8   ar
     8     8     9   ar
     9     9    10   ar
    10     6    10   ar
    11     5    11    1
    12    11    12    1
    13    12    13    1
    14    13    14    1
    15    14    15    1
    16    15    16   ar
    17    16    17   ar
    18    17    18   ar
    19    18    19    1
    20    18    20   ar
    21    20    21   ar
    22    15    21   ar
    23    14    22    1
    24    22    23    1
    25    11    23    1
    26     2    24    1
    27    24    25   ar
    28    25    26   ar
    29    26    27   ar
    30    27    28   ar
    31    24    28   ar
    32     3    29    1
    33     4    30    1
    34     4    31    1
    35     5    32    1
    36     7    33    1
    37     8    34    1
    38     9    35    1
    39    12    36    1
    40    12    37    1
    41    13    38    1
    42    13    39    1
    43    16    40    1
    44    17    41    1
    45    20    42    1
    46    21    43    1
    47    22    44    1
    48    22    45    1
    49    23    46    1
    50    23    47    1
    51    25    48    1
    52    26    49    1
    53    27    50    1
