
 OpenBabel05082222213D

 50 53  0  0  1  0  0  0  0  0999 V2000
    2.6830   56.8460  -16.7110 O   0  0  0  0  0  0  0  0  0  0  0  0
    2.6650   56.0790  -17.6690 C   0  0  0  0  0  0  0  0  0  0  0  0
    3.0120   54.7490  -17.5460 N   0  0  0  0  0  0  0  0  0  0  0  0
    3.5090   54.2030  -16.2930 C   0  0  0  0  0  0  0  0  0  0  0  0
    5.0590   53.9870  -16.2270 C   0  0  1  0  0  0  0  0  0  0  0  0
    5.7350   54.8070  -17.3090 C   0  0  0  0  0  0  0  0  0  0  0  0
    6.1220   56.1290  -17.4270 C   0  0  0  0  0  0  0  0  0  0  0  0
    6.8250   56.2390  -18.6520 C   0  0  0  0  0  0  0  0  0  0  0  0
    6.8180   54.9850  -19.2120 C   0  0  0  0  0  0  0  0  0  0  0  0
    6.1300   54.1190  -18.4270 O   0  0  0  0  0  0  0  0  0  0  0  0
    5.6260   54.3390  -14.8840 N   0  0  0  0  0  0  0  0  0  0  0  0
    7.1000   54.1020  -14.8220 C   0  0  0  0  0  0  0  0  0  0  0  0
    7.5170   52.6160  -14.9380 C   0  0  0  0  0  0  0  0  0  0  0  0
    6.8770   51.8500  -13.8550 N   0  0  0  0  0  0  0  0  0  0  0  0
    7.5400   50.8370  -13.1860 C   0  0  0  0  0  0  0  0  0  0  0  0
    7.0370   49.5240  -13.1710 C   0  0  0  0  0  0  0  0  0  0  0  0
    7.7450   48.4660  -12.5930 C   0  0  0  0  0  0  0  0  0  0  0  0
    8.9770   48.7080  -12.0100 C   0  0  0  0  0  0  0  0  0  0  0  0
    9.6720   47.6930  -11.4830 F   0  0  0  0  0  0  0  0  0  0  0  0
    9.4980   49.9910  -11.9740 C   0  0  0  0  0  0  0  0  0  0  0  0
    8.7790   51.0430  -12.5540 C   0  0  0  0  0  0  0  0  0  0  0  0
    5.4190   52.0300  -13.7370 C   0  0  0  0  0  0  0  0  0  0  0  0
    5.0470   53.5370  -13.7750 C   0  0  0  0  0  0  0  0  0  0  0  0
    2.3090   56.4860  -19.0110 C   0  0  0  0  0  0  0  0  0  0  0  0
    3.1020   56.8610  -20.0780 C   0  0  0  0  0  0  0  0  0  0  0  0
    2.2320   57.1380  -21.1570 C   0  0  0  0  0  0  0  0  0  0  0  0
    0.9580   56.9200  -20.6850 C   0  0  0  0  0  0  0  0  0  0  0  0
    0.9910   56.5270  -19.3850 O   0  0  0  0  0  0  0  0  0  0  0  0
    3.0550   54.1990  -18.3960 H   0  0  0  0  0  0  0  0  0  0  0  0
    2.9810   53.2530  -16.1710 H   0  0  0  0  0  0  0  0  0  0  0  0
    3.1720   54.8690  -15.4910 H   0  0  0  0  0  0  0  0  0  0  0  0
    5.2570   52.9330  -16.4470 H   0  0  0  0  0  0  0  0  0  0  0  0
    5.9480   56.9110  -16.7020 H   0  0  0  0  0  0  0  0  0  0  0  0
    7.2990   57.1180  -19.0650 H   0  0  0  0  0  0  0  0  0  0  0  0
    7.2410   54.5640  -20.1140 H   0  0  0  0  0  0  0  0  0  0  0  0
    7.4570   54.4810  -13.8540 H   0  0  0  0  0  0  0  0  0  0  0  0
    7.6380   54.7090  -15.5550 H   0  0  0  0  0  0  0  0  0  0  0  0
    8.6090   52.5690  -14.9190 H   0  0  0  0  0  0  0  0  0  0  0  0
    7.2220   52.1920  -15.9050 H   0  0  0  0  0  0  0  0  0  0  0  0
    6.1010   49.2830  -13.6650 H   0  0  0  0  0  0  0  0  0  0  0  0
    7.3480   47.4570  -12.6190 H   0  0  0  0  0  0  0  0  0  0  0  0
   10.4620   50.1690  -11.5090 H   0  0  0  0  0  0  0  0  0  0  0  0
    9.2100   52.0390  -12.4940 H   0  0  0  0  0  0  0  0  0  0  0  0
    5.0550   51.6500  -12.7750 H   0  0  0  0  0  0  0  0  0  0  0  0
    4.9040   51.4810  -14.5330 H   0  0  0  0  0  0  0  0  0  0  0  0
    5.4050   53.9880  -12.8380 H   0  0  0  0  0  0  0  0  0  0  0  0
    3.9600   53.6500  -13.7180 H   0  0  0  0  0  0  0  0  0  0  0  0
    4.1820   56.9190  -20.0610 H   0  0  0  0  0  0  0  0  0  0  0  0
    2.4990   57.4550  -22.1540 H   0  0  0  0  0  0  0  0  0  0  0  0
   -0.0250   56.9940  -21.1300 H   0  0  0  0  0  0  0  0  0  0  0  0
  2  3  1  0  0  0  0
  2  1  2  0  0  0  0
  3  4  1  0  0  0  0
  4  5  1  0  0  0  0
  4 30  1  0  0  0  0
  4 31  1  0  0  0  0
  5 32  1  6  0  0  0
  5 11  1  0  0  0  0
  6  5  1  0  0  0  0
  7  6  2  0  0  0  0
  7 33  1  0  0  0  0
  8  7  1  0  0  0  0
  9  8  2  0  0  0  0
  9 10  1  0  0  0  0
 10  6  1  0  0  0  0
 11 12  1  0  0  0  0
 11 23  1  0  0  0  0
 12 36  1  0  0  0  0
 13 38  1  0  0  0  0
 13 12  1  0  0  0  0
 13 14  1  0  0  0  0
 14 22  1  0  0  0  0
 14 15  1  0  0  0  0
 15 16  2  0  0  0  0
 15 21  1  0  0  0  0
 16 17  1  0  0  0  0
 17 18  2  0  0  0  0
 18 20  1  0  0  0  0
 18 19  1  0  0  0  0
 20 42  1  0  0  0  0
 21 43  1  0  0  0  0
 21 20  2  0  0  0  0
 22 44  1  0  0  0  0
 23 22  1  0  0  0  0
 23 47  1  0  0  0  0
 23 46  1  0  0  0  0
 24  2  1  0  0  0  0
 25 48  1  0  0  0  0
 25 24  2  0  0  0  0
 26 27  2  0  0  0  0
 26 25  1  0  0  0  0
 27 28  1  0  0  0  0
 28 24  1  0  0  0  0
 29  3  1  0  0  0  0
 34  8  1  0  0  0  0
 35  9  1  0  0  0  0
 37 12  1  0  0  0  0
 39 13  1  0  0  0  0
 40 16  1  0  0  0  0
 41 17  1  0  0  0  0
 45 22  1  0  0  0  0
 49 26  1  0  0  0  0
 50 27  1  0  0  0  0
M  END
>  <Pose>
1

>  <Score>
-4.87

$$$$

 OpenBabel05082222213D

 50 53  0  0  1  0  0  0  0  0999 V2000
    2.3470   54.5600  -17.5020 O   0  0  0  0  0  0  0  0  0  0  0  0
    2.5870   55.7580  -17.6260 C   0  0  0  0  0  0  0  0  0  0  0  0
    3.5550   56.3900  -16.8730 N   0  0  0  0  0  0  0  0  0  0  0  0
    4.2790   55.6940  -15.8210 C   0  0  0  0  0  0  0  0  0  0  0  0
    5.3960   54.7120  -16.3130 C   0  0  1  0  0  0  0  0  0  0  0  0
    6.0070   55.2390  -17.5980 C   0  0  0  0  0  0  0  0  0  0  0  0
    6.5560   56.4460  -17.9890 C   0  0  0  0  0  0  0  0  0  0  0  0
    7.0700   56.2540  -19.2950 C   0  0  0  0  0  0  0  0  0  0  0  0
    6.7950   54.9500  -19.6280 C   0  0  0  0  0  0  0  0  0  0  0  0
    6.1210   54.3370  -18.6240 O   0  0  0  0  0  0  0  0  0  0  0  0
    6.4650   54.5040  -15.2830 N   0  0  0  0  0  0  0  0  0  0  0  0
    7.5520   53.6080  -15.7820 C   0  0  0  0  0  0  0  0  0  0  0  0
    7.1100   52.1500  -16.0490 C   0  0  0  0  0  0  0  0  0  0  0  0
    6.5680   51.5740  -14.8060 N   0  0  0  0  0  0  0  0  0  0  0  0
    6.8160   50.2640  -14.4390 C   0  0  0  0  0  0  0  0  0  0  0  0
    7.0230   49.9130  -13.0930 C   0  0  0  0  0  0  0  0  0  0  0  0
    7.1680   48.5820  -12.6880 C   0  0  0  0  0  0  0  0  0  0  0  0
    7.1140   47.5730  -13.6330 C   0  0  0  0  0  0  0  0  0  0  0  0
    7.2200   46.2960  -13.2470 F   0  0  0  0  0  0  0  0  0  0  0  0
    6.9430   47.8740  -14.9750 C   0  0  0  0  0  0  0  0  0  0  0  0
    6.8010   49.2090  -15.3680 C   0  0  0  0  0  0  0  0  0  0  0  0
    5.5250   52.3780  -14.1470 C   0  0  0  0  0  0  0  0  0  0  0  0
    5.9620   53.8640  -14.0380 C   0  0  0  0  0  0  0  0  0  0  0  0
    1.8780   56.6220  -18.5440 C   0  0  0  0  0  0  0  0  0  0  0  0
    1.4910   57.9420  -18.4190 C   0  0  0  0  0  0  0  0  0  0  0  0
    0.8470   58.2960  -19.6270 C   0  0  0  0  0  0  0  0  0  0  0  0
    0.8750   57.1700  -20.4170 C   0  0  0  0  0  0  0  0  0  0  0  0
    1.4950   56.1480  -19.7710 O   0  0  0  0  0  0  0  0  0  0  0  0
    3.6380   57.3950  -16.9710 H   0  0  0  0  0  0  0  0  0  0  0  0
    3.5100   55.1540  -15.2600 H   0  0  0  0  0  0  0  0  0  0  0  0
    4.6950   56.4570  -15.1530 H   0  0  0  0  0  0  0  0  0  0  0  0
    4.9180   53.7570  -16.5490 H   0  0  0  0  0  0  0  0  0  0  0  0
    6.6110   57.3440  -17.3920 H   0  0  0  0  0  0  0  0  0  0  0  0
    7.5950   56.9710  -19.9110 H   0  0  0  0  0  0  0  0  0  0  0  0
    7.0090   54.3350  -20.4910 H   0  0  0  0  0  0  0  0  0  0  0  0
    8.3440   53.5900  -15.0190 H   0  0  0  0  0  0  0  0  0  0  0  0
    8.0470   54.0250  -16.6620 H   0  0  0  0  0  0  0  0  0  0  0  0
    7.9710   51.6030  -16.4430 H   0  0  0  0  0  0  0  0  0  0  0  0
    6.3470   52.1000  -16.8340 H   0  0  0  0  0  0  0  0  0  0  0  0
    7.0170   50.6690  -12.3150 H   0  0  0  0  0  0  0  0  0  0  0  0
    7.2980   48.3360  -11.6400 H   0  0  0  0  0  0  0  0  0  0  0  0
    6.9080   47.0740  -15.7070 H   0  0  0  0  0  0  0  0  0  0  0  0
    6.6850   49.4110  -16.4300 H   0  0  0  0  0  0  0  0  0  0  0  0
    5.3580   52.0340  -13.1190 H   0  0  0  0  0  0  0  0  0  0  0  0
    4.5780   52.2900  -14.6910 H   0  0  0  0  0  0  0  0  0  0  0  0
    6.7810   53.9140  -13.3050 H   0  0  0  0  0  0  0  0  0  0  0  0
    5.1640   54.4520  -13.5760 H   0  0  0  0  0  0  0  0  0  0  0  0
    1.6650   58.5630  -17.5500 H   0  0  0  0  0  0  0  0  0  0  0  0
    0.4180   59.2510  -19.8890 H   0  0  0  0  0  0  0  0  0  0  0  0
    0.5170   56.9490  -21.4140 H   0  0  0  0  0  0  0  0  0  0  0  0
  2  1  2  0  0  0  0
  2  3  1  0  0  0  0
  3  4  1  0  0  0  0
  4 30  1  0  0  0  0
  4 31  1  0  0  0  0
  5 32  1  6  0  0  0
  5  4  1  0  0  0  0
  5 11  1  0  0  0  0
  6  5  1  0  0  0  0
  7  6  2  0  0  0  0
  7 33  1  0  0  0  0
  8  7  1  0  0  0  0
  9  8  2  0  0  0  0
  9 10  1  0  0  0  0
 10  6  1  0  0  0  0
 11 23  1  0  0  0  0
 12 11  1  0  0  0  0
 12 36  1  0  0  0  0
 13 12  1  0  0  0  0
 13 14  1  0  0  0  0
 14 15  1  0  0  0  0
 14 22  1  0  0  0  0
 15 16  1  0  0  0  0
 16 17  2  0  0  0  0
 16 40  1  0  0  0  0
 17 41  1  0  0  0  0
 18 19  1  0  0  0  0
 18 17  1  0  0  0  0
 20 18  2  0  0  0  0
 21 20  1  0  0  0  0
 21 15  2  0  0  0  0
 22 23  1  0  0  0  0
 22 44  1  0  0  0  0
 23 47  1  0  0  0  0
 23 46  1  0  0  0  0
 24 25  2  0  0  0  0
 24  2  1  0  0  0  0
 25 48  1  0  0  0  0
 26 25  1  0  0  0  0
 27 28  1  0  0  0  0
 27 26  2  0  0  0  0
 28 24  1  0  0  0  0
 29  3  1  0  0  0  0
 34  8  1  0  0  0  0
 35  9  1  0  0  0  0
 37 12  1  0  0  0  0
 38 13  1  0  0  0  0
 39 13  1  0  0  0  0
 42 20  1  0  0  0  0
 43 21  1  0  0  0  0
 45 22  1  0  0  0  0
 49 26  1  0  0  0  0
 50 27  1  0  0  0  0
M  END
>  <Pose>
1

>  <Score>
-4.73

$$$$

 OpenBabel05082222213D

 50 53  0  0  1  0  0  0  0  0999 V2000
    1.1090   58.0080  -22.2610 O   0  0  0  0  0  0  0  0  0  0  0  0
    0.2130   58.4080  -21.5230 C   0  0  0  0  0  0  0  0  0  0  0  0
    0.1410   58.0380  -20.1960 N   0  0  0  0  0  0  0  0  0  0  0  0
    1.0670   57.0750  -19.6210 C   0  0  0  0  0  0  0  0  0  0  0  0
    2.0040   57.6380  -18.4990 C   0  0  1  0  0  0  0  0  0  0  0  0
    1.3850   58.8830  -17.8940 C   0  0  0  0  0  0  0  0  0  0  0  0
    0.3410   59.1230  -17.0210 C   0  0  0  0  0  0  0  0  0  0  0  0
    0.3490   60.5140  -16.7490 C   0  0  0  0  0  0  0  0  0  0  0  0
    1.3880   61.0410  -17.4770 C   0  0  0  0  0  0  0  0  0  0  0  0
    1.9990   60.0700  -18.2020 O   0  0  0  0  0  0  0  0  0  0  0  0
    2.2790   56.6270  -17.4260 N   0  0  0  0  0  0  0  0  0  0  0  0
    3.2440   57.1420  -16.4090 C   0  0  0  0  0  0  0  0  0  0  0  0
    4.6720   57.3960  -16.9490 C   0  0  0  0  0  0  0  0  0  0  0  0
    5.2080   56.1410  -17.5030 N   0  0  0  0  0  0  0  0  0  0  0  0
    6.5300   55.7730  -17.3340 C   0  0  0  0  0  0  0  0  0  0  0  0
    7.4950   56.7010  -16.9050 C   0  0  0  0  0  0  0  0  0  0  0  0
    8.8120   56.3260  -16.6240 C   0  0  0  0  0  0  0  0  0  0  0  0
    9.1900   55.0030  -16.7760 C   0  0  0  0  0  0  0  0  0  0  0  0
   10.4420   54.6330  -16.4790 F   0  0  0  0  0  0  0  0  0  0  0  0
    8.2820   54.0590  -17.2270 C   0  0  0  0  0  0  0  0  0  0  0  0
    6.9670   54.4470  -17.5060 C   0  0  0  0  0  0  0  0  0  0  0  0
    4.3360   55.4650  -18.4800 C   0  0  0  0  0  0  0  0  0  0  0  0
    2.8810   55.3710  -17.9460 C   0  0  0  0  0  0  0  0  0  0  0  0
   -0.8550   59.2770  -21.9650 C   0  0  0  0  0  0  0  0  0  0  0  0
   -0.8550   60.6260  -22.2610 C   0  0  0  0  0  0  0  0  0  0  0  0
   -2.1680   60.9570  -22.6660 C   0  0  0  0  0  0  0  0  0  0  0  0
   -2.8950   59.7920  -22.5910 C   0  0  0  0  0  0  0  0  0  0  0  0
   -2.1120   58.7660  -22.1650 O   0  0  0  0  0  0  0  0  0  0  0  0
   -0.6730   58.3390  -19.6730 H   0  0  0  0  0  0  0  0  0  0  0  0
    1.6540   56.7080  -20.4670 H   0  0  0  0  0  0  0  0  0  0  0  0
    0.4710   56.2340  -19.2470 H   0  0  0  0  0  0  0  0  0  0  0  0
    2.9440   57.9400  -18.9730 H   0  0  0  0  0  0  0  0  0  0  0  0
   -0.3240   58.3820  -16.6040 H   0  0  0  0  0  0  0  0  0  0  0  0
   -0.3060   61.0610  -16.0860 H   0  0  0  0  0  0  0  0  0  0  0  0
    1.8060   62.0330  -17.5790 H   0  0  0  0  0  0  0  0  0  0  0  0
    3.3120   56.3950  -15.6060 H   0  0  0  0  0  0  0  0  0  0  0  0
    2.8620   58.0340  -15.9050 H   0  0  0  0  0  0  0  0  0  0  0  0
    5.2750   57.8040  -16.1330 H   0  0  0  0  0  0  0  0  0  0  0  0
    4.6740   58.1660  -17.7290 H   0  0  0  0  0  0  0  0  0  0  0  0
    7.2250   57.7360  -16.7210 H   0  0  0  0  0  0  0  0  0  0  0  0
    9.5290   57.0570  -16.2670 H   0  0  0  0  0  0  0  0  0  0  0  0
    8.5920   53.0260  -17.3470 H   0  0  0  0  0  0  0  0  0  0  0  0
    6.2850   53.6840  -17.8720 H   0  0  0  0  0  0  0  0  0  0  0  0
    4.6660   54.4330  -18.6500 H   0  0  0  0  0  0  0  0  0  0  0  0
    4.3650   55.9910  -19.4410 H   0  0  0  0  0  0  0  0  0  0  0  0
    2.8830   54.6530  -17.1130 H   0  0  0  0  0  0  0  0  0  0  0  0
    2.2420   54.8960  -18.6950 H   0  0  0  0  0  0  0  0  0  0  0  0
    0.0060   61.2790  -22.1890 H   0  0  0  0  0  0  0  0  0  0  0  0
   -2.5370   61.9240  -22.9760 H   0  0  0  0  0  0  0  0  0  0  0  0
   -3.9260   59.5420  -22.8000 H   0  0  0  0  0  0  0  0  0  0  0  0
  1  2  2  0  0  0  0
  2  3  1  0  0  0  0
  3 29  1  0  0  0  0
  3  4  1  0  0  0  0
  4 31  1  0  0  0  0
  4  5  1  0  0  0  0
  5 32  1  6  0  0  0
  5  6  1  0  0  0  0
  5 11  1  0  0  0  0
  6  7  2  0  0  0  0
  7  8  1  0  0  0  0
  7 33  1  0  0  0  0
  8 34  1  0  0  0  0
  9  8  2  0  0  0  0
 10  6  1  0  0  0  0
 10  9  1  0  0  0  0
 11 12  1  0  0  0  0
 12 37  1  0  0  0  0
 12 36  1  0  0  0  0
 13 12  1  0  0  0  0
 13 38  1  0  0  0  0
 14 15  1  0  0  0  0
 14 13  1  0  0  0  0
 15 16  1  0  0  0  0
 16 40  1  0  0  0  0
 16 17  2  0  0  0  0
 17 41  1  0  0  0  0
 18 17  1  0  0  0  0
 18 19  1  0  0  0  0
 20 18  2  0  0  0  0
 21 15  2  0  0  0  0
 21 20  1  0  0  0  0
 22 23  1  0  0  0  0
 22 14  1  0  0  0  0
 23 11  1  0  0  0  0
 23 46  1  0  0  0  0
 24  2  1  0  0  0  0
 25 48  1  0  0  0  0
 25 24  2  0  0  0  0
 26 27  2  0  0  0  0
 26 25  1  0  0  0  0
 27 28  1  0  0  0  0
 28 24  1  0  0  0  0
 30  4  1  0  0  0  0
 35  9  1  0  0  0  0
 39 13  1  0  0  0  0
 42 20  1  0  0  0  0
 43 21  1  0  0  0  0
 44 22  1  0  0  0  0
 45 22  1  0  0  0  0
 47 23  1  0  0  0  0
 49 26  1  0  0  0  0
 50 27  1  0  0  0  0
M  END
>  <Pose>
1

>  <Score>
-4.52

$$$$

 OpenBabel05082222213D

 50 53  0  0  1  0  0  0  0  0999 V2000
    6.9190   55.7630  -20.5730 O   0  0  0  0  0  0  0  0  0  0  0  0
    6.0100   54.9420  -20.6630 C   0  0  0  0  0  0  0  0  0  0  0  0
    5.4040   54.4000  -19.5490 N   0  0  0  0  0  0  0  0  0  0  0  0
    5.8710   54.6970  -18.2040 C   0  0  0  0  0  0  0  0  0  0  0  0
    4.7690   55.1880  -17.2060 C   0  0  1  0  0  0  0  0  0  0  0  0
    5.0850   54.6870  -15.8100 C   0  0  0  0  0  0  0  0  0  0  0  0
    5.5370   55.2780  -14.6450 C   0  0  0  0  0  0  0  0  0  0  0  0
    5.5060   54.2760  -13.6430 C   0  0  0  0  0  0  0  0  0  0  0  0
    5.0490   53.1350  -14.2550 C   0  0  0  0  0  0  0  0  0  0  0  0
    4.8250   53.3620  -15.5730 O   0  0  0  0  0  0  0  0  0  0  0  0
    4.6330   56.6820  -17.1980 N   0  0  0  0  0  0  0  0  0  0  0  0
    3.2650   57.1140  -16.7810 C   0  0  0  0  0  0  0  0  0  0  0  0
    2.1390   56.7210  -17.7660 C   0  0  0  0  0  0  0  0  0  0  0  0
    2.4280   57.3040  -19.0870 N   0  0  0  0  0  0  0  0  0  0  0  0
    1.4300   57.8320  -19.8870 C   0  0  0  0  0  0  0  0  0  0  0  0
    0.7980   57.0520  -20.8720 C   0  0  0  0  0  0  0  0  0  0  0  0
   -0.2840   57.5320  -21.6160 C   0  0  0  0  0  0  0  0  0  0  0  0
   -0.7500   58.8160  -21.3900 C   0  0  0  0  0  0  0  0  0  0  0  0
   -1.8050   59.2690  -22.0780 F   0  0  0  0  0  0  0  0  0  0  0  0
   -0.1390   59.6310  -20.4520 C   0  0  0  0  0  0  0  0  0  0  0  0
    0.9450   59.1400  -19.7140 C   0  0  0  0  0  0  0  0  0  0  0  0
    3.7750   57.0250  -19.6140 C   0  0  0  0  0  0  0  0  0  0  0  0
    4.8550   57.2980  -18.5330 C   0  0  0  0  0  0  0  0  0  0  0  0
    5.5040   54.4490  -21.9250 C   0  0  0  0  0  0  0  0  0  0  0  0
    4.7760   55.0830  -22.9120 C   0  0  0  0  0  0  0  0  0  0  0  0
    4.5680   54.1350  -23.9400 C   0  0  0  0  0  0  0  0  0  0  0  0
    5.1770   52.9750  -23.5190 C   0  0  0  0  0  0  0  0  0  0  0  0
    5.7460   53.1510  -22.2970 O   0  0  0  0  0  0  0  0  0  0  0  0
    4.7210   53.6670  -19.7010 H   0  0  0  0  0  0  0  0  0  0  0  0
    6.6410   55.4630  -18.3370 H   0  0  0  0  0  0  0  0  0  0  0  0
    6.3690   53.7970  -17.8260 H   0  0  0  0  0  0  0  0  0  0  0  0
    3.8210   54.7320  -17.5080 H   0  0  0  0  0  0  0  0  0  0  0  0
    5.8220   56.3120  -14.5230 H   0  0  0  0  0  0  0  0  0  0  0  0
    5.7640   54.3790  -12.5980 H   0  0  0  0  0  0  0  0  0  0  0  0
    4.8300   52.1340  -13.9090 H   0  0  0  0  0  0  0  0  0  0  0  0
    3.2740   58.2100  -16.6950 H   0  0  0  0  0  0  0  0  0  0  0  0
    3.0240   56.7760  -15.7700 H   0  0  0  0  0  0  0  0  0  0  0  0
    1.1870   57.0520  -17.3420 H   0  0  0  0  0  0  0  0  0  0  0  0
    2.0530   55.6320  -17.8620 H   0  0  0  0  0  0  0  0  0  0  0  0
    1.0980   56.0230  -21.0420 H   0  0  0  0  0  0  0  0  0  0  0  0
   -0.7720   56.9000  -22.3500 H   0  0  0  0  0  0  0  0  0  0  0  0
   -0.5100   60.6370  -20.2870 H   0  0  0  0  0  0  0  0  0  0  0  0
    1.4110   59.8120  -18.9970 H   0  0  0  0  0  0  0  0  0  0  0  0
    4.0110   57.6880  -20.4550 H   0  0  0  0  0  0  0  0  0  0  0  0
    3.8350   55.9910  -19.9730 H   0  0  0  0  0  0  0  0  0  0  0  0
    4.8970   58.3850  -18.3760 H   0  0  0  0  0  0  0  0  0  0  0  0
    5.8450   57.0550  -18.9300 H   0  0  0  0  0  0  0  0  0  0  0  0
    4.4460   56.1130  -22.8790 H   0  0  0  0  0  0  0  0  0  0  0  0
    4.0410   54.2790  -24.8720 H   0  0  0  0  0  0  0  0  0  0  0  0
    5.2900   51.9920  -23.9530 H   0  0  0  0  0  0  0  0  0  0  0  0
  2  1  2  0  0  0  0
  2  3  1  0  0  0  0
  3  4  1  0  0  0  0
  4 31  1  0  0  0  0
  4  5  1  0  0  0  0
  5 32  1  6  0  0  0
  5 11  1  0  0  0  0
  5  6  1  0  0  0  0
  6 10  1  0  0  0  0
  6  7  2  0  0  0  0
  7 33  1  0  0  0  0
  7  8  1  0  0  0  0
  8 34  1  0  0  0  0
  9 35  1  0  0  0  0
  9  8  2  0  0  0  0
 10  9  1  0  0  0  0
 11 12  1  0  0  0  0
 12 36  1  0  0  0  0
 12 37  1  0  0  0  0
 13 38  1  0  0  0  0
 13 12  1  0  0  0  0
 14 13  1  0  0  0  0
 15 21  1  0  0  0  0
 15 14  1  0  0  0  0
 16 15  2  0  0  0  0
 17 18  2  0  0  0  0
 17 16  1  0  0  0  0
 18 20  1  0  0  0  0
 19 18  1  0  0  0  0
 20 42  1  0  0  0  0
 20 21  2  0  0  0  0
 21 43  1  0  0  0  0
 22 14  1  0  0  0  0
 22 23  1  0  0  0  0
 23 46  1  0  0  0  0
 23 11  1  0  0  0  0
 24  2  1  0  0  0  0
 25 48  1  0  0  0  0
 25 24  2  0  0  0  0
 26 27  2  0  0  0  0
 26 25  1  0  0  0  0
 27 28  1  0  0  0  0
 28 24  1  0  0  0  0
 29  3  1  0  0  0  0
 30  4  1  0  0  0  0
 39 13  1  0  0  0  0
 40 16  1  0  0  0  0
 41 17  1  0  0  0  0
 44 22  1  0  0  0  0
 45 22  1  0  0  0  0
 47 23  1  0  0  0  0
 49 26  1  0  0  0  0
 50 27  1  0  0  0  0
M  END
>  <Pose>
1

>  <Score>
-4.49

$$$$

 OpenBabel05082222213D

 50 53  0  0  1  0  0  0  0  0999 V2000
    1.4950   60.5250  -20.3100 O   0  0  0  0  0  0  0  0  0  0  0  0
    0.3470   60.0920  -20.2720 C   0  0  0  0  0  0  0  0  0  0  0  0
   -0.1010   59.3030  -19.2330 N   0  0  0  0  0  0  0  0  0  0  0  0
    0.7890   58.8610  -18.1710 C   0  0  0  0  0  0  0  0  0  0  0  0
    1.7510   57.6850  -18.5520 C   0  0  1  0  0  0  0  0  0  0  0  0
    1.5230   57.2870  -19.9980 C   0  0  0  0  0  0  0  0  0  0  0  0
    2.0360   57.7020  -21.2130 C   0  0  0  0  0  0  0  0  0  0  0  0
    1.5000   56.8360  -22.1970 C   0  0  0  0  0  0  0  0  0  0  0  0
    0.6860   55.9540  -21.5310 C   0  0  0  0  0  0  0  0  0  0  0  0
    0.6640   56.2390  -20.2050 O   0  0  0  0  0  0  0  0  0  0  0  0
    3.1930   58.0370  -18.3370 N   0  0  0  0  0  0  0  0  0  0  0  0
    4.1080   57.1040  -19.0620 C   0  0  0  0  0  0  0  0  0  0  0  0
    4.0790   55.6460  -18.5450 C   0  0  0  0  0  0  0  0  0  0  0  0
    4.4390   55.6330  -17.1180 N   0  0  0  0  0  0  0  0  0  0  0  0
    5.2360   54.6420  -16.5740 C   0  0  0  0  0  0  0  0  0  0  0  0
    6.4540   54.2750  -17.1740 C   0  0  0  0  0  0  0  0  0  0  0  0
    7.3240   53.3540  -16.5840 C   0  0  0  0  0  0  0  0  0  0  0  0
    6.9830   52.7740  -15.3740 C   0  0  0  0  0  0  0  0  0  0  0  0
    7.8270   51.9150  -14.7890 F   0  0  0  0  0  0  0  0  0  0  0  0
    5.7800   53.0810  -14.7610 C   0  0  0  0  0  0  0  0  0  0  0  0
    4.9160   54.0030  -15.3620 C   0  0  0  0  0  0  0  0  0  0  0  0
    3.6680   56.5570  -16.2690 C   0  0  0  0  0  0  0  0  0  0  0  0
    3.6060   57.9700  -16.9100 C   0  0  0  0  0  0  0  0  0  0  0  0
   -0.6330   60.3390  -21.3070 C   0  0  0  0  0  0  0  0  0  0  0  0
   -0.6480   61.2680  -22.3290 C   0  0  0  0  0  0  0  0  0  0  0  0
   -1.8370   61.0510  -23.0620 C   0  0  0  0  0  0  0  0  0  0  0  0
   -2.4820   60.0050  -22.4430 C   0  0  0  0  0  0  0  0  0  0  0  0
   -1.7630   59.5660  -21.3760 O   0  0  0  0  0  0  0  0  0  0  0  0
   -1.0330   58.9130  -19.3130 H   0  0  0  0  0  0  0  0  0  0  0  0
    0.1260   58.5680  -17.3520 H   0  0  0  0  0  0  0  0  0  0  0  0
    1.3550   59.7370  -17.8360 H   0  0  0  0  0  0  0  0  0  0  0  0
    1.4840   56.8230  -17.9320 H   0  0  0  0  0  0  0  0  0  0  0  0
    2.7380   58.5080  -21.3660 H   0  0  0  0  0  0  0  0  0  0  0  0
    1.7000   56.8400  -23.2600 H   0  0  0  0  0  0  0  0  0  0  0  0
    0.0910   55.1050  -21.8360 H   0  0  0  0  0  0  0  0  0  0  0  0
    5.1320   57.4860  -18.9460 H   0  0  0  0  0  0  0  0  0  0  0  0
    3.9400   57.1310  -20.1420 H   0  0  0  0  0  0  0  0  0  0  0  0
    4.7530   55.0530  -19.1700 H   0  0  0  0  0  0  0  0  0  0  0  0
    3.0880   55.1950  -18.6730 H   0  0  0  0  0  0  0  0  0  0  0  0
    6.7820   54.7470  -18.0950 H   0  0  0  0  0  0  0  0  0  0  0  0
    8.2700   53.1100  -17.0540 H   0  0  0  0  0  0  0  0  0  0  0  0
    5.5220   52.6160  -13.8150 H   0  0  0  0  0  0  0  0  0  0  0  0
    3.9730   54.2090  -14.8620 H   0  0  0  0  0  0  0  0  0  0  0  0
    4.1510   56.6870  -15.2930 H   0  0  0  0  0  0  0  0  0  0  0  0
    2.6600   56.1630  -16.0960 H   0  0  0  0  0  0  0  0  0  0  0  0
    4.6150   58.4020  -16.8530 H   0  0  0  0  0  0  0  0  0  0  0  0
    3.0030   58.6350  -16.2840 H   0  0  0  0  0  0  0  0  0  0  0  0
    0.1220   62.0070  -22.5100 H   0  0  0  0  0  0  0  0  0  0  0  0
   -2.1810   61.5890  -23.9330 H   0  0  0  0  0  0  0  0  0  0  0  0
   -3.4090   59.4820  -22.6330 H   0  0  0  0  0  0  0  0  0  0  0  0
  1  2  2  0  0  0  0
  2  3  1  0  0  0  0
  3  4  1  0  0  0  0
  4 31  1  0  0  0  0
  4 30  1  0  0  0  0
  5 11  1  0  0  0  0
  5  4  1  0  0  0  0
  5 32  1  1  0  0  0
  6  5  1  0  0  0  0
  7  6  2  0  0  0  0
  8  9  2  0  0  0  0
  8  7  1  0  0  0  0
  9 10  1  0  0  0  0
 10  6  1  0  0  0  0
 11 23  1  0  0  0  0
 12 36  1  0  0  0  0
 12 13  1  0  0  0  0
 12 11  1  0  0  0  0
 13 14  1  0  0  0  0
 14 15  1  0  0  0  0
 14 22  1  0  0  0  0
 15 21  1  0  0  0  0
 16 17  1  0  0  0  0
 16 15  2  0  0  0  0
 17 18  2  0  0  0  0
 18 19  1  0  0  0  0
 18 20  1  0  0  0  0
 20 42  1  0  0  0  0
 21 43  1  0  0  0  0
 21 20  2  0  0  0  0
 22 45  1  0  0  0  0
 22 44  1  0  0  0  0
 23 46  1  0  0  0  0
 23 47  1  0  0  0  0
 23 22  1  0  0  0  0
 24  2  1  0  0  0  0
 25 24  2  0  0  0  0
 26 27  2  0  0  0  0
 26 25  1  0  0  0  0
 27 28  1  0  0  0  0
 28 24  1  0  0  0  0
 29  3  1  0  0  0  0
 33  7  1  0  0  0  0
 34  8  1  0  0  0  0
 35  9  1  0  0  0  0
 37 12  1  0  0  0  0
 38 13  1  0  0  0  0
 39 13  1  0  0  0  0
 40 16  1  0  0  0  0
 41 17  1  0  0  0  0
 48 25  1  0  0  0  0
 49 26  1  0  0  0  0
 50 27  1  0  0  0  0
M  END
>  <Pose>
1

>  <Score>
-4.49

$$$$

 OpenBabel05082222213D

 50 53  0  0  1  0  0  0  0  0999 V2000
    6.9210   55.3310  -22.2420 O   0  0  0  0  0  0  0  0  0  0  0  0
    5.9900   54.5580  -22.0330 C   0  0  0  0  0  0  0  0  0  0  0  0
    5.4520   54.3880  -20.7750 N   0  0  0  0  0  0  0  0  0  0  0  0
    6.0190   55.0420  -19.6060 C   0  0  0  0  0  0  0  0  0  0  0  0
    5.0310   55.2430  -18.4070 C   0  0  1  0  0  0  0  0  0  0  0  0
    5.5900   54.5700  -17.1680 C   0  0  0  0  0  0  0  0  0  0  0  0
    5.3800   54.7070  -15.8090 C   0  0  0  0  0  0  0  0  0  0  0  0
    6.1260   53.6830  -15.1760 C   0  0  0  0  0  0  0  0  0  0  0  0
    6.7540   52.9890  -16.1810 C   0  0  0  0  0  0  0  0  0  0  0  0
    6.4670   53.5380  -17.3880 O   0  0  0  0  0  0  0  0  0  0  0  0
    4.7620   56.6910  -18.1280 N   0  0  0  0  0  0  0  0  0  0  0  0
    3.4150   56.8990  -17.5160 C   0  0  0  0  0  0  0  0  0  0  0  0
    2.2270   56.5510  -18.4440 C   0  0  0  0  0  0  0  0  0  0  0  0
    2.3130   57.3690  -19.6650 N   0  0  0  0  0  0  0  0  0  0  0  0
    1.1890   57.9080  -20.2650 C   0  0  0  0  0  0  0  0  0  0  0  0
    0.8320   59.2540  -20.0640 C   0  0  0  0  0  0  0  0  0  0  0  0
   -0.2370   59.8460  -20.7430 C   0  0  0  0  0  0  0  0  0  0  0  0
   -0.9760   59.0930  -21.6390 C   0  0  0  0  0  0  0  0  0  0  0  0
   -1.9800   59.6650  -22.3150 F   0  0  0  0  0  0  0  0  0  0  0  0
   -0.6810   57.7560  -21.8460 C   0  0  0  0  0  0  0  0  0  0  0  0
    0.3900   57.1730  -21.1580 C   0  0  0  0  0  0  0  0  0  0  0  0
    3.6130   57.3270  -20.3570 C   0  0  0  0  0  0  0  0  0  0  0  0
    4.7770   57.5360  -19.3520 C   0  0  0  0  0  0  0  0  0  0  0  0
    5.3860   53.7410  -23.0630 C   0  0  0  0  0  0  0  0  0  0  0  0
    5.9450   52.8100  -23.9160 C   0  0  0  0  0  0  0  0  0  0  0  0
    4.8920   52.2940  -24.7050 C   0  0  0  0  0  0  0  0  0  0  0  0
    3.7520   52.9430  -24.2910 C   0  0  0  0  0  0  0  0  0  0  0  0
    4.0380   53.8250  -23.2980 O   0  0  0  0  0  0  0  0  0  0  0  0
    4.7440   53.6710  -20.6650 H   0  0  0  0  0  0  0  0  0  0  0  0
    6.3830   56.0060  -19.9730 H   0  0  0  0  0  0  0  0  0  0  0  0
    6.8940   54.4580  -19.2990 H   0  0  0  0  0  0  0  0  0  0  0  0
    4.0960   54.7340  -18.6590 H   0  0  0  0  0  0  0  0  0  0  0  0
    4.7390   55.4350  -15.3340 H   0  0  0  0  0  0  0  0  0  0  0  0
    6.1810   53.4620  -14.1200 H   0  0  0  0  0  0  0  0  0  0  0  0
    7.3990   52.1210  -16.2050 H   0  0  0  0  0  0  0  0  0  0  0  0
    3.3340   57.9610  -17.2440 H   0  0  0  0  0  0  0  0  0  0  0  0
    3.3200   56.3770  -16.5600 H   0  0  0  0  0  0  0  0  0  0  0  0
    1.3020   56.7040  -17.8810 H   0  0  0  0  0  0  0  0  0  0  0  0
    2.2310   55.4890  -18.7180 H   0  0  0  0  0  0  0  0  0  0  0  0
    1.4190   59.8920  -19.4120 H   0  0  0  0  0  0  0  0  0  0  0  0
   -0.4740   60.8930  -20.5910 H   0  0  0  0  0  0  0  0  0  0  0  0
   -1.2710   57.1750  -22.5460 H   0  0  0  0  0  0  0  0  0  0  0  0
    0.5840   56.1180  -21.3330 H   0  0  0  0  0  0  0  0  0  0  0  0
    3.6930   58.1400  -21.0890 H   0  0  0  0  0  0  0  0  0  0  0  0
    3.7270   56.3780  -20.8940 H   0  0  0  0  0  0  0  0  0  0  0  0
    4.7370   58.5820  -19.0140 H   0  0  0  0  0  0  0  0  0  0  0  0
    5.7350   57.4700  -19.8760 H   0  0  0  0  0  0  0  0  0  0  0  0
    6.9940   52.5450  -23.9480 H   0  0  0  0  0  0  0  0  0  0  0  0
    4.9560   51.5420  -25.4780 H   0  0  0  0  0  0  0  0  0  0  0  0
    2.7130   52.8880  -24.5870 H   0  0  0  0  0  0  0  0  0  0  0  0
  1  2  2  0  0  0  0
  2  3  1  0  0  0  0
  3 29  1  0  0  0  0
  3  4  1  0  0  0  0
  4 31  1  0  0  0  0
  4  5  1  0  0  0  0
  5 32  1  6  0  0  0
  5 11  1  0  0  0  0
  5  6  1  0  0  0  0
  6  7  2  0  0  0  0
  7 33  1  0  0  0  0
  7  8  1  0  0  0  0
  8 34  1  0  0  0  0
  9  8  2  0  0  0  0
 10  6  1  0  0  0  0
 10  9  1  0  0  0  0
 11 12  1  0  0  0  0
 12 36  1  0  0  0  0
 12 37  1  0  0  0  0
 13 38  1  0  0  0  0
 13 12  1  0  0  0  0
 14 13  1  0  0  0  0
 15 16  1  0  0  0  0
 15 14  1  0  0  0  0
 16 40  1  0  0  0  0
 17 41  1  0  0  0  0
 17 16  2  0  0  0  0
 18 17  1  0  0  0  0
 19 18  1  0  0  0  0
 20 18  2  0  0  0  0
 20 21  1  0  0  0  0
 21 15  2  0  0  0  0
 22 14  1  0  0  0  0
 22 23  1  0  0  0  0
 23 46  1  0  0  0  0
 23 11  1  0  0  0  0
 24  2  1  0  0  0  0
 25 24  2  0  0  0  0
 26 27  2  0  0  0  0
 26 25  1  0  0  0  0
 27 28  1  0  0  0  0
 28 24  1  0  0  0  0
 30  4  1  0  0  0  0
 35  9  1  0  0  0  0
 39 13  1  0  0  0  0
 42 20  1  0  0  0  0
 43 21  1  0  0  0  0
 44 22  1  0  0  0  0
 45 22  1  0  0  0  0
 47 23  1  0  0  0  0
 48 25  1  0  0  0  0
 49 26  1  0  0  0  0
 50 27  1  0  0  0  0
M  END
>  <Pose>
1

>  <Score>
-4.44

$$$$

 OpenBabel05082222213D

 50 53  0  0  1  0  0  0  0  0999 V2000
    0.9570   58.7530  -22.4070 O   0  0  0  0  0  0  0  0  0  0  0  0
   -0.0830   58.8070  -21.7580 C   0  0  0  0  0  0  0  0  0  0  0  0
   -0.2540   58.0890  -20.5920 N   0  0  0  0  0  0  0  0  0  0  0  0
    0.7530   57.1530  -20.1170 C   0  0  0  0  0  0  0  0  0  0  0  0
    1.3780   57.4950  -18.7210 C   0  0  1  0  0  0  0  0  0  0  0  0
    2.3360   56.3950  -18.3080 C   0  0  0  0  0  0  0  0  0  0  0  0
    3.6660   56.1180  -18.5650 C   0  0  0  0  0  0  0  0  0  0  0  0
    4.0090   54.9960  -17.7710 C   0  0  0  0  0  0  0  0  0  0  0  0
    2.8700   54.6480  -17.0870 C   0  0  0  0  0  0  0  0  0  0  0  0
    1.8430   55.4650  -17.4300 O   0  0  0  0  0  0  0  0  0  0  0  0
    2.0830   58.8180  -18.7220 N   0  0  0  0  0  0  0  0  0  0  0  0
    3.5160   58.6860  -18.3200 C   0  0  0  0  0  0  0  0  0  0  0  0
    3.7340   58.2350  -16.8560 C   0  0  0  0  0  0  0  0  0  0  0  0
    3.0860   59.2010  -15.9530 N   0  0  0  0  0  0  0  0  0  0  0  0
    3.6650   59.5850  -14.7570 C   0  0  0  0  0  0  0  0  0  0  0  0
    4.2500   58.6410  -13.8940 C   0  0  0  0  0  0  0  0  0  0  0  0
    4.9340   59.0190  -12.7350 C   0  0  0  0  0  0  0  0  0  0  0  0
    5.0400   60.3610  -12.4140 C   0  0  0  0  0  0  0  0  0  0  0  0
    5.7210   60.7300  -11.3220 F   0  0  0  0  0  0  0  0  0  0  0  0
    4.4530   61.3250  -13.2170 C   0  0  0  0  0  0  0  0  0  0  0  0
    3.7690   60.9340  -14.3740 C   0  0  0  0  0  0  0  0  0  0  0  0
    1.6750   59.4960  -16.2580 C   0  0  0  0  0  0  0  0  0  0  0  0
    1.4920   59.7970  -17.7710 C   0  0  0  0  0  0  0  0  0  0  0  0
   -1.2290   59.5960  -22.1520 C   0  0  0  0  0  0  0  0  0  0  0  0
   -1.3910   60.9640  -22.2450 C   0  0  0  0  0  0  0  0  0  0  0  0
   -2.7090   61.1910  -22.7020 C   0  0  0  0  0  0  0  0  0  0  0  0
   -3.2780   59.9480  -22.8580 C   0  0  0  0  0  0  0  0  0  0  0  0
   -2.3920   58.9720  -22.5260 O   0  0  0  0  0  0  0  0  0  0  0  0
   -1.1690   58.1170  -20.1570 H   0  0  0  0  0  0  0  0  0  0  0  0
    1.5230   57.1500  -20.8940 H   0  0  0  0  0  0  0  0  0  0  0  0
    0.2940   56.1580  -20.1070 H   0  0  0  0  0  0  0  0  0  0  0  0
    0.5650   57.5090  -17.9880 H   0  0  0  0  0  0  0  0  0  0  0  0
    4.3190   56.6770  -19.2190 H   0  0  0  0  0  0  0  0  0  0  0  0
    4.9720   54.5130  -17.6900 H   0  0  0  0  0  0  0  0  0  0  0  0
    2.6380   53.8910  -16.3510 H   0  0  0  0  0  0  0  0  0  0  0  0
    3.9890   59.6700  -18.4470 H   0  0  0  0  0  0  0  0  0  0  0  0
    4.0700   58.0390  -19.0060 H   0  0  0  0  0  0  0  0  0  0  0  0
    4.8090   58.1360  -16.6890 H   0  0  0  0  0  0  0  0  0  0  0  0
    3.3160   57.2370  -16.6780 H   0  0  0  0  0  0  0  0  0  0  0  0
    4.2360   57.5830  -14.1390 H   0  0  0  0  0  0  0  0  0  0  0  0
    5.4000   58.2720  -12.1020 H   0  0  0  0  0  0  0  0  0  0  0  0
    4.5390   62.3740  -12.9520 H   0  0  0  0  0  0  0  0  0  0  0  0
    3.3070   61.7160  -14.9730 H   0  0  0  0  0  0  0  0  0  0  0  0
    1.3400   60.3950  -15.7260 H   0  0  0  0  0  0  0  0  0  0  0  0
    1.0370   58.6610  -15.9470 H   0  0  0  0  0  0  0  0  0  0  0  0
    1.9730   60.7650  -17.9740 H   0  0  0  0  0  0  0  0  0  0  0  0
    0.4360   59.9820  -17.9860 H   0  0  0  0  0  0  0  0  0  0  0  0
   -0.6320   61.6980  -22.0090 H   0  0  0  0  0  0  0  0  0  0  0  0
   -3.1840   62.1410  -22.8960 H   0  0  0  0  0  0  0  0  0  0  0  0
   -4.2510   59.6090  -23.1840 H   0  0  0  0  0  0  0  0  0  0  0  0
  1  2  2  0  0  0  0
  2  3  1  0  0  0  0
  3 29  1  0  0  0  0
  3  4  1  0  0  0  0
  4 31  1  0  0  0  0
  4  5  1  0  0  0  0
  5  6  1  0  0  0  0
  5 32  1  1  0  0  0
  6 10  1  0  0  0  0
  7  6  2  0  0  0  0
  7  8  1  0  0  0  0
  8 34  1  0  0  0  0
  8  9  2  0  0  0  0
  9 35  1  0  0  0  0
 10  9  1  0  0  0  0
 11  5  1  0  0  0  0
 11 12  1  0  0  0  0
 11 23  1  0  0  0  0
 12 13  1  0  0  0  0
 13 38  1  0  0  0  0
 13 39  1  0  0  0  0
 13 14  1  0  0  0  0
 14 15  1  0  0  0  0
 15 21  2  0  0  0  0
 15 16  1  0  0  0  0
 16 17  2  0  0  0  0
 17 18  1  0  0  0  0
 17 41  1  0  0  0  0
 18 19  1  0  0  0  0
 20 42  1  0  0  0  0
 20 18  2  0  0  0  0
 21 20  1  0  0  0  0
 22 14  1  0  0  0  0
 22 45  1  0  0  0  0
 22 44  1  0  0  0  0
 23 22  1  0  0  0  0
 24  2  1  0  0  0  0
 25 24  2  0  0  0  0
 25 48  1  0  0  0  0
 26 25  1  0  0  0  0
 27 26  2  0  0  0  0
 27 28  1  0  0  0  0
 28 24  1  0  0  0  0
 30  4  1  0  0  0  0
 33  7  1  0  0  0  0
 36 12  1  0  0  0  0
 37 12  1  0  0  0  0
 40 16  1  0  0  0  0
 43 21  1  0  0  0  0
 46 23  1  0  0  0  0
 47 23  1  0  0  0  0
 49 26  1  0  0  0  0
 50 27  1  0  0  0  0
M  END
>  <Pose>
1

>  <Score>
-4.38

$$$$

 OpenBabel05082222213D

 50 53  0  0  1  0  0  0  0  0999 V2000
    1.6840   57.1990  -17.1790 O   0  0  0  0  0  0  0  0  0  0  0  0
    1.8550   56.6810  -18.2790 C   0  0  0  0  0  0  0  0  0  0  0  0
    2.7450   55.6450  -18.4670 N   0  0  0  0  0  0  0  0  0  0  0  0
    3.6020   55.1700  -17.3930 C   0  0  0  0  0  0  0  0  0  0  0  0
    5.0580   54.7810  -17.8210 C   0  0  1  0  0  0  0  0  0  0  0  0
    5.4030   55.4620  -19.1310 C   0  0  0  0  0  0  0  0  0  0  0  0
    5.4390   56.7750  -19.5640 C   0  0  0  0  0  0  0  0  0  0  0  0
    5.9710   56.7560  -20.8770 C   0  0  0  0  0  0  0  0  0  0  0  0
    6.2170   55.4370  -21.1720 C   0  0  0  0  0  0  0  0  0  0  0  0
    5.8440   54.6430  -20.1380 O   0  0  0  0  0  0  0  0  0  0  0  0
    6.0720   55.1360  -16.7750 N   0  0  0  0  0  0  0  0  0  0  0  0
    7.2930   54.2800  -16.8710 C   0  0  0  0  0  0  0  0  0  0  0  0
    7.0560   52.7840  -16.5570 C   0  0  0  0  0  0  0  0  0  0  0  0
    6.5060   52.6570  -15.1970 N   0  0  0  0  0  0  0  0  0  0  0  0
    6.8890   51.6360  -14.3460 C   0  0  0  0  0  0  0  0  0  0  0  0
    6.8430   50.2920  -14.7550 C   0  0  0  0  0  0  0  0  0  0  0  0
    7.3260   49.2550  -13.9510 C   0  0  0  0  0  0  0  0  0  0  0  0
    7.8620   49.5490  -12.7090 C   0  0  0  0  0  0  0  0  0  0  0  0
    8.3540   48.5640  -11.9490 F   0  0  0  0  0  0  0  0  0  0  0  0
    7.9000   50.8560  -12.2510 C   0  0  0  0  0  0  0  0  0  0  0  0
    7.4120   51.8860  -13.0650 C   0  0  0  0  0  0  0  0  0  0  0  0
    5.3280   53.4970  -14.9170 C   0  0  0  0  0  0  0  0  0  0  0  0
    5.5700   54.9570  -15.3870 C   0  0  0  0  0  0  0  0  0  0  0  0
    1.1690   57.1120  -19.4780 C   0  0  0  0  0  0  0  0  0  0  0  0
    0.9290   58.3800  -19.9710 C   0  0  0  0  0  0  0  0  0  0  0  0
    0.2350   58.2200  -21.1910 C   0  0  0  0  0  0  0  0  0  0  0  0
    0.0880   56.8640  -21.3710 C   0  0  0  0  0  0  0  0  0  0  0  0
    0.6470   56.1810  -20.3380 O   0  0  0  0  0  0  0  0  0  0  0  0
    2.8940   55.3260  -19.4180 H   0  0  0  0  0  0  0  0  0  0  0  0
    3.0780   54.3050  -16.9760 H   0  0  0  0  0  0  0  0  0  0  0  0
    3.6150   55.9460  -16.6200 H   0  0  0  0  0  0  0  0  0  0  0  0
    5.0740   53.7020  -18.0020 H   0  0  0  0  0  0  0  0  0  0  0  0
    5.1500   57.6440  -18.9910 H   0  0  0  0  0  0  0  0  0  0  0  0
    6.1710   57.6000  -21.5210 H   0  0  0  0  0  0  0  0  0  0  0  0
    6.6410   54.9250  -22.0250 H   0  0  0  0  0  0  0  0  0  0  0  0
    8.0280   54.6660  -16.1500 H   0  0  0  0  0  0  0  0  0  0  0  0
    7.7920   54.3940  -17.8370 H   0  0  0  0  0  0  0  0  0  0  0  0
    8.0020   52.2550  -16.6960 H   0  0  0  0  0  0  0  0  0  0  0  0
    6.3590   52.3300  -17.2730 H   0  0  0  0  0  0  0  0  0  0  0  0
    6.4800   50.0250  -15.7430 H   0  0  0  0  0  0  0  0  0  0  0  0
    7.3040   48.2290  -14.3020 H   0  0  0  0  0  0  0  0  0  0  0  0
    8.3190   51.0730  -11.2740 H   0  0  0  0  0  0  0  0  0  0  0  0
    7.4430   52.8970  -12.6680 H   0  0  0  0  0  0  0  0  0  0  0  0
    5.1360   53.5520  -13.8380 H   0  0  0  0  0  0  0  0  0  0  0  0
    4.4390   53.0740  -15.3970 H   0  0  0  0  0  0  0  0  0  0  0  0
    6.3230   55.3970  -14.7180 H   0  0  0  0  0  0  0  0  0  0  0  0
    4.6750   55.5580  -15.2010 H   0  0  0  0  0  0  0  0  0  0  0  0
    1.2320   59.3020  -19.4910 H   0  0  0  0  0  0  0  0  0  0  0  0
   -0.1130   58.9950  -21.8580 H   0  0  0  0  0  0  0  0  0  0  0  0
   -0.3650   56.2590  -22.1450 H   0  0  0  0  0  0  0  0  0  0  0  0
  2  1  2  0  0  0  0
  3  2  1  0  0  0  0
  3  4  1  0  0  0  0
  4 30  1  0  0  0  0
  4 31  1  0  0  0  0
  5 32  1  6  0  0  0
  5  4  1  0  0  0  0
  5 11  1  0  0  0  0
  6  5  1  0  0  0  0
  7  6  2  0  0  0  0
  7 33  1  0  0  0  0
  8  7  1  0  0  0  0
  9  8  2  0  0  0  0
  9 10  1  0  0  0  0
 10  6  1  0  0  0  0
 11 23  1  0  0  0  0
 12 11  1  0  0  0  0
 12 13  1  0  0  0  0
 12 36  1  0  0  0  0
 13 14  1  0  0  0  0
 14 22  1  0  0  0  0
 14 15  1  0  0  0  0
 15 21  1  0  0  0  0
 16 15  2  0  0  0  0
 16 17  1  0  0  0  0
 17 18  2  0  0  0  0
 18 20  1  0  0  0  0
 18 19  1  0  0  0  0
 20 42  1  0  0  0  0
 21 43  1  0  0  0  0
 21 20  2  0  0  0  0
 22 44  1  0  0  0  0
 23 47  1  0  0  0  0
 23 22  1  0  0  0  0
 23 46  1  0  0  0  0
 24  2  1  0  0  0  0
 25 48  1  0  0  0  0
 25 24  2  0  0  0  0
 26 25  1  0  0  0  0
 27 26  2  0  0  0  0
 27 28  1  0  0  0  0
 28 24  1  0  0  0  0
 29  3  1  0  0  0  0
 34  8  1  0  0  0  0
 35  9  1  0  0  0  0
 37 12  1  0  0  0  0
 38 13  1  0  0  0  0
 39 13  1  0  0  0  0
 40 16  1  0  0  0  0
 41 17  1  0  0  0  0
 45 22  1  0  0  0  0
 49 26  1  0  0  0  0
 50 27  1  0  0  0  0
M  END
>  <Pose>
1

>  <Score>
-4.33

$$$$

 OpenBabel05082222213D

 50 53  0  0  1  0  0  0  0  0999 V2000
    6.7180   54.7360  -22.4290 O   0  0  0  0  0  0  0  0  0  0  0  0
    5.5740   54.3090  -22.5560 C   0  0  0  0  0  0  0  0  0  0  0  0
    4.5290   54.7830  -21.7910 N   0  0  0  0  0  0  0  0  0  0  0  0
    4.7400   55.7470  -20.7230 C   0  0  0  0  0  0  0  0  0  0  0  0
    3.4720   56.0890  -19.8690 C   0  0  1  0  0  0  0  0  0  0  0  0
    3.6480   55.5570  -18.4600 C   0  0  0  0  0  0  0  0  0  0  0  0
    4.6910   55.5340  -17.5530 C   0  0  0  0  0  0  0  0  0  0  0  0
    4.1720   54.9980  -16.3490 C   0  0  0  0  0  0  0  0  0  0  0  0
    2.8500   54.7170  -16.5930 C   0  0  0  0  0  0  0  0  0  0  0  0
    2.5310   55.0170  -17.8760 O   0  0  0  0  0  0  0  0  0  0  0  0
    3.1900   57.5610  -19.8320 N   0  0  0  0  0  0  0  0  0  0  0  0
    1.8280   57.8540  -19.2940 C   0  0  0  0  0  0  0  0  0  0  0  0
    0.6650   57.3530  -20.1830 C   0  0  0  0  0  0  0  0  0  0  0  0
    0.7790   57.9660  -21.5170 N   0  0  0  0  0  0  0  0  0  0  0  0
   -0.3310   58.3940  -22.2220 C   0  0  0  0  0  0  0  0  0  0  0  0
   -0.9200   57.5880  -23.2130 C   0  0  0  0  0  0  0  0  0  0  0  0
   -2.1040   57.9550  -23.8610 C   0  0  0  0  0  0  0  0  0  0  0  0
   -2.7200   59.1490  -23.5290 C   0  0  0  0  0  0  0  0  0  0  0  0
   -3.8690   59.4900  -24.1230 F   0  0  0  0  0  0  0  0  0  0  0  0
   -2.1600   59.9900  -22.5810 C   0  0  0  0  0  0  0  0  0  0  0  0
   -0.9730   59.6130  -21.9400 C   0  0  0  0  0  0  0  0  0  0  0  0
    2.0960   57.8240  -22.1610 C   0  0  0  0  0  0  0  0  0  0  0  0
    3.2340   58.2000  -21.1740 C   0  0  0  0  0  0  0  0  0  0  0  0
    5.2120   53.2660  -23.4900 C   0  0  0  0  0  0  0  0  0  0  0  0
    5.7940   52.8840  -24.6830 C   0  0  0  0  0  0  0  0  0  0  0  0
    5.0440   51.7910  -25.1730 C   0  0  0  0  0  0  0  0  0  0  0  0
    4.0440   51.5710  -24.2530 C   0  0  0  0  0  0  0  0  0  0  0  0
    4.1330   52.4600  -23.2290 O   0  0  0  0  0  0  0  0  0  0  0  0
    3.6310   54.3240  -21.8930 H   0  0  0  0  0  0  0  0  0  0  0  0
    5.1220   56.6420  -21.2220 H   0  0  0  0  0  0  0  0  0  0  0  0
    5.5460   55.3590  -20.0890 H   0  0  0  0  0  0  0  0  0  0  0  0
    2.6220   55.5600  -20.3110 H   0  0  0  0  0  0  0  0  0  0  0  0
    5.6960   55.8920  -17.7270 H   0  0  0  0  0  0  0  0  0  0  0  0
    4.6900   54.8560  -15.4110 H   0  0  0  0  0  0  0  0  0  0  0  0
    2.0410   54.3290  -15.9890 H   0  0  0  0  0  0  0  0  0  0  0  0
    1.7360   58.9450  -19.1970 H   0  0  0  0  0  0  0  0  0  0  0  0
    1.7100   57.4900  -18.2700 H   0  0  0  0  0  0  0  0  0  0  0  0
   -0.2750   57.5870  -19.6750 H   0  0  0  0  0  0  0  0  0  0  0  0
    0.6790   56.2610  -20.2840 H   0  0  0  0  0  0  0  0  0  0  0  0
   -0.4980   56.6200  -23.4630 H   0  0  0  0  0  0  0  0  0  0  0  0
   -2.5520   57.3020  -24.6010 H   0  0  0  0  0  0  0  0  0  0  0  0
   -2.6500   60.9260  -22.3330 H   0  0  0  0  0  0  0  0  0  0  0  0
   -0.5540   60.3040  -21.2130 H   0  0  0  0  0  0  0  0  0  0  0  0
    2.1920   58.5100  -23.0110 H   0  0  0  0  0  0  0  0  0  0  0  0
    2.2270   56.8020  -22.5360 H   0  0  0  0  0  0  0  0  0  0  0  0
    3.1810   59.2860  -21.0090 H   0  0  0  0  0  0  0  0  0  0  0  0
    4.2050   58.0580  -21.6570 H   0  0  0  0  0  0  0  0  0  0  0  0
    6.6620   53.3510  -25.1300 H   0  0  0  0  0  0  0  0  0  0  0  0
    5.2110   51.2320  -26.0820 H   0  0  0  0  0  0  0  0  0  0  0  0
    3.2360   50.8560  -24.1860 H   0  0  0  0  0  0  0  0  0  0  0  0
  2  1  2  0  0  0  0
  2  3  1  0  0  0  0
  3  4  1  0  0  0  0
  4 31  1  0  0  0  0
  4  5  1  0  0  0  0
  5 32  1  6  0  0  0
  5 11  1  0  0  0  0
  5  6  1  0  0  0  0
  6 10  1  0  0  0  0
  6  7  2  0  0  0  0
  7  8  1  0  0  0  0
  8 34  1  0  0  0  0
  9  8  2  0  0  0  0
  9 35  1  0  0  0  0
 10  9  1  0  0  0  0
 11 12  1  0  0  0  0
 12 36  1  0  0  0  0
 12 37  1  0  0  0  0
 13 38  1  0  0  0  0
 13 12  1  0  0  0  0
 14 13  1  0  0  0  0
 15 21  1  0  0  0  0
 15 14  1  0  0  0  0
 16 15  2  0  0  0  0
 17 18  2  0  0  0  0
 17 16  1  0  0  0  0
 18 20  1  0  0  0  0
 19 18  1  0  0  0  0
 20 42  1  0  0  0  0
 20 21  2  0  0  0  0
 21 43  1  0  0  0  0
 22 14  1  0  0  0  0
 22 23  1  0  0  0  0
 23 46  1  0  0  0  0
 23 11  1  0  0  0  0
 24 28  1  0  0  0  0
 24  2  1  0  0  0  0
 25 24  2  0  0  0  0
 26 25  1  0  0  0  0
 26 27  2  0  0  0  0
 27 50  1  0  0  0  0
 27 28  1  0  0  0  0
 29  3  1  0  0  0  0
 30  4  1  0  0  0  0
 33  7  1  0  0  0  0
 39 13  1  0  0  0  0
 40 16  1  0  0  0  0
 41 17  1  0  0  0  0
 44 22  1  0  0  0  0
 45 22  1  0  0  0  0
 47 23  1  0  0  0  0
 48 25  1  0  0  0  0
 49 26  1  0  0  0  0
M  END
>  <Pose>
1

>  <Score>
-4.30

$$$$

 OpenBabel05082222213D

 50 53  0  0  1  0  0  0  0  0999 V2000
    1.8770   54.0070  -16.9750 O   0  0  0  0  0  0  0  0  0  0  0  0
    2.6480   54.9510  -17.1240 C   0  0  0  0  0  0  0  0  0  0  0  0
    3.8600   55.0140  -16.4670 N   0  0  0  0  0  0  0  0  0  0  0  0
    4.2500   54.0120  -15.4880 C   0  0  0  0  0  0  0  0  0  0  0  0
    5.6470   53.3470  -15.7310 C   0  0  1  0  0  0  0  0  0  0  0  0
    6.3260   54.0060  -16.9170 C   0  0  0  0  0  0  0  0  0  0  0  0
    6.4540   55.3090  -17.3620 C   0  0  0  0  0  0  0  0  0  0  0  0
    7.3260   55.2730  -18.4780 C   0  0  0  0  0  0  0  0  0  0  0  0
    7.6690   53.9550  -18.6550 C   0  0  0  0  0  0  0  0  0  0  0  0
    7.0420   53.1750  -17.7390 O   0  0  0  0  0  0  0  0  0  0  0  0
    6.5330   53.4250  -14.5240 N   0  0  0  0  0  0  0  0  0  0  0  0
    7.8570   52.7750  -14.7620 C   0  0  0  0  0  0  0  0  0  0  0  0
    7.7920   51.2450  -14.9830 C   0  0  0  0  0  0  0  0  0  0  0  0
    7.1700   50.6140  -13.8070 N   0  0  0  0  0  0  0  0  0  0  0  0
    7.6210   49.4080  -13.3000 C   0  0  0  0  0  0  0  0  0  0  0  0
    8.7210   49.3520  -12.4250 C   0  0  0  0  0  0  0  0  0  0  0  0
    9.1250   48.1590  -11.8190 C   0  0  0  0  0  0  0  0  0  0  0  0
    8.4320   46.9900  -12.0850 C   0  0  0  0  0  0  0  0  0  0  0  0
    8.7950   45.8520  -11.4820 F   0  0  0  0  0  0  0  0  0  0  0  0
    7.3610   46.9920  -12.9640 C   0  0  0  0  0  0  0  0  0  0  0  0
    6.9670   48.1920  -13.5670 C   0  0  0  0  0  0  0  0  0  0  0  0
    5.8780   51.1910  -13.3960 C   0  0  0  0  0  0  0  0  0  0  0  0
    5.9620   52.7400  -13.3340 C   0  0  0  0  0  0  0  0  0  0  0  0
    2.3620   56.0880  -17.9700 C   0  0  0  0  0  0  0  0  0  0  0  0
    2.2080   57.4250  -17.6600 C   0  0  0  0  0  0  0  0  0  0  0  0
    1.9620   58.1020  -18.8760 C   0  0  0  0  0  0  0  0  0  0  0  0
    1.9760   57.1390  -19.8580 C   0  0  0  0  0  0  0  0  0  0  0  0
    2.2150   55.9140  -19.3220 O   0  0  0  0  0  0  0  0  0  0  0  0
    4.4040   55.8620  -16.5740 H   0  0  0  0  0  0  0  0  0  0  0  0
    3.4550   53.2620  -15.5200 H   0  0  0  0  0  0  0  0  0  0  0  0
    4.2100   54.4880  -14.5010 H   0  0  0  0  0  0  0  0  0  0  0  0
    5.4750   52.2990  -15.9970 H   0  0  0  0  0  0  0  0  0  0  0  0
    6.0030   56.1830  -16.9160 H   0  0  0  0  0  0  0  0  0  0  0  0
    7.6800   56.1070  -19.0680 H   0  0  0  0  0  0  0  0  0  0  0  0
    8.3200   53.4350  -19.3440 H   0  0  0  0  0  0  0  0  0  0  0  0
    8.4850   52.9650  -13.8790 H   0  0  0  0  0  0  0  0  0  0  0  0
    8.4030   53.2570  -15.5780 H   0  0  0  0  0  0  0  0  0  0  0  0
    8.8060   50.8890  -15.1830 H   0  0  0  0  0  0  0  0  0  0  0  0
    7.2110   50.9940  -15.8780 H   0  0  0  0  0  0  0  0  0  0  0  0
    9.2560   50.2540  -12.1490 H   0  0  0  0  0  0  0  0  0  0  0  0
    9.9590   48.1480  -11.1260 H   0  0  0  0  0  0  0  0  0  0  0  0
    6.8290   46.0690  -13.1680 H   0  0  0  0  0  0  0  0  0  0  0  0
    6.1330   48.1550  -14.2630 H   0  0  0  0  0  0  0  0  0  0  0  0
    5.6060   50.8600  -12.3860 H   0  0  0  0  0  0  0  0  0  0  0  0
    5.0850   50.8700  -14.0810 H   0  0  0  0  0  0  0  0  0  0  0  0
    6.6050   53.0000  -12.4810 H   0  0  0  0  0  0  0  0  0  0  0  0
    4.9880   53.1530  -13.0590 H   0  0  0  0  0  0  0  0  0  0  0  0
    2.2730   57.8450  -16.6640 H   0  0  0  0  0  0  0  0  0  0  0  0
    1.7970   59.1600  -19.0180 H   0  0  0  0  0  0  0  0  0  0  0  0
    1.8420   57.1660  -20.9310 H   0  0  0  0  0  0  0  0  0  0  0  0
  2  1  2  0  0  0  0
  2  3  1  0  0  0  0
  3  4  1  0  0  0  0
  4 31  1  0  0  0  0
  5 32  1  6  0  0  0
  5  4  1  0  0  0  0
  5 11  1  0  0  0  0
  6  5  1  0  0  0  0
  7  6  2  0  0  0  0
  7 33  1  0  0  0  0
  8  7  1  0  0  0  0
  9  8  2  0  0  0  0
  9 10  1  0  0  0  0
 10  6  1  0  0  0  0
 11 23  1  0  0  0  0
 12 11  1  0  0  0  0
 12 36  1  0  0  0  0
 13 12  1  0  0  0  0
 13 14  1  0  0  0  0
 14 22  1  0  0  0  0
 14 15  1  0  0  0  0
 15 16  1  0  0  0  0
 16 40  1  0  0  0  0
 16 17  2  0  0  0  0
 17 41  1  0  0  0  0
 18 17  1  0  0  0  0
 18 19  1  0  0  0  0
 20 18  2  0  0  0  0
 21 15  2  0  0  0  0
 21 20  1  0  0  0  0
 22 23  1  0  0  0  0
 22 44  1  0  0  0  0
 23 47  1  0  0  0  0
 23 46  1  0  0  0  0
 24 25  2  0  0  0  0
 24  2  1  0  0  0  0
 25 48  1  0  0  0  0
 26 25  1  0  0  0  0
 27 28  1  0  0  0  0
 27 26  2  0  0  0  0
 28 24  1  0  0  0  0
 29  3  1  0  0  0  0
 30  4  1  0  0  0  0
 34  8  1  0  0  0  0
 35  9  1  0  0  0  0
 37 12  1  0  0  0  0
 38 13  1  0  0  0  0
 39 13  1  0  0  0  0
 42 20  1  0  0  0  0
 43 21  1  0  0  0  0
 45 22  1  0  0  0  0
 49 26  1  0  0  0  0
 50 27  1  0  0  0  0
M  END
>  <Pose>
1

>  <Score>
-4.29

$$$$

 OpenBabel05082222213D

 50 53  0  0  1  0  0  0  0  0999 V2000
    4.8060   55.3960  -19.7370 O   0  0  0  0  0  0  0  0  0  0  0  0
    5.7870   54.9890  -20.3520 C   0  0  0  0  0  0  0  0  0  0  0  0
    7.0030   54.7860  -19.7320 N   0  0  0  0  0  0  0  0  0  0  0  0
    7.2170   55.1340  -18.3360 C   0  0  0  0  0  0  0  0  0  0  0  0
    6.5470   54.1710  -17.2980 C   0  0  1  0  0  0  0  0  0  0  0  0
    7.4630   52.9920  -17.0310 C   0  0  0  0  0  0  0  0  0  0  0  0
    8.8320   52.7990  -17.0590 C   0  0  0  0  0  0  0  0  0  0  0  0
    9.0670   51.4860  -16.5810 C   0  0  0  0  0  0  0  0  0  0  0  0
    7.8330   50.9530  -16.3000 C   0  0  0  0  0  0  0  0  0  0  0  0
    6.8530   51.8410  -16.6020 O   0  0  0  0  0  0  0  0  0  0  0  0
    6.2140   54.8650  -16.0110 N   0  0  0  0  0  0  0  0  0  0  0  0
    4.7830   54.6720  -15.6280 C   0  0  0  0  0  0  0  0  0  0  0  0
    3.7660   55.3290  -16.5900 C   0  0  0  0  0  0  0  0  0  0  0  0
    4.0350   56.7750  -16.6620 N   0  0  0  0  0  0  0  0  0  0  0  0
    3.0150   57.7070  -16.7160 C   0  0  0  0  0  0  0  0  0  0  0  0
    3.1220   58.9430  -16.0520 C   0  0  0  0  0  0  0  0  0  0  0  0
    2.1500   59.9400  -16.1810 C   0  0  0  0  0  0  0  0  0  0  0  0
    1.0430   59.7130  -16.9800 C   0  0  0  0  0  0  0  0  0  0  0  0
    0.1260   60.6760  -17.1320 F   0  0  0  0  0  0  0  0  0  0  0  0
    0.8800   58.4990  -17.6280 C   0  0  0  0  0  0  0  0  0  0  0  0
    1.8580   57.5080  -17.4890 C   0  0  0  0  0  0  0  0  0  0  0  0
    5.4300   57.1380  -16.9660 C   0  0  0  0  0  0  0  0  0  0  0  0
    6.4140   56.3370  -16.0710 C   0  0  0  0  0  0  0  0  0  0  0  0
    5.7800   54.7070  -21.7700 C   0  0  0  0  0  0  0  0  0  0  0  0
    6.1370   55.4960  -22.8460 C   0  0  0  0  0  0  0  0  0  0  0  0
    5.9540   54.7110  -24.0080 C   0  0  0  0  0  0  0  0  0  0  0  0
    5.4910   53.4900  -23.5740 C   0  0  0  0  0  0  0  0  0  0  0  0
    5.3780   53.4760  -22.2200 O   0  0  0  0  0  0  0  0  0  0  0  0
    7.7890   54.5310  -20.3200 H   0  0  0  0  0  0  0  0  0  0  0  0
    6.8200   56.1480  -18.2350 H   0  0  0  0  0  0  0  0  0  0  0  0
    8.3000   55.1890  -18.1770 H   0  0  0  0  0  0  0  0  0  0  0  0
    5.6330   53.7760  -17.7520 H   0  0  0  0  0  0  0  0  0  0  0  0
    9.5720   53.5270  -17.3560 H   0  0  0  0  0  0  0  0  0  0  0  0
   10.0190   50.9960  -16.4370 H   0  0  0  0  0  0  0  0  0  0  0  0
    7.4980   50.0090  -15.8930 H   0  0  0  0  0  0  0  0  0  0  0  0
    4.6430   55.1130  -14.6300 H   0  0  0  0  0  0  0  0  0  0  0  0
    4.5430   53.6150  -15.4810 H   0  0  0  0  0  0  0  0  0  0  0  0
    2.7600   55.0910  -16.2330 H   0  0  0  0  0  0  0  0  0  0  0  0
    3.8300   54.8990  -17.5960 H   0  0  0  0  0  0  0  0  0  0  0  0
    4.0000   59.1810  -15.4610 H   0  0  0  0  0  0  0  0  0  0  0  0
    2.2710   60.8950  -15.6810 H   0  0  0  0  0  0  0  0  0  0  0  0
    0.0050   58.3310  -18.2470 H   0  0  0  0  0  0  0  0  0  0  0  0
    1.6900   56.5620  -17.9990 H   0  0  0  0  0  0  0  0  0  0  0  0
    5.6150   58.1970  -16.7500 H   0  0  0  0  0  0  0  0  0  0  0  0
    5.6430   56.9680  -18.0280 H   0  0  0  0  0  0  0  0  0  0  0  0
    6.3040   56.7130  -15.0430 H   0  0  0  0  0  0  0  0  0  0  0  0
    7.4450   56.5940  -16.3310 H   0  0  0  0  0  0  0  0  0  0  0  0
    6.4910   56.5160  -22.7800 H   0  0  0  0  0  0  0  0  0  0  0  0
    6.1380   54.9980  -25.0320 H   0  0  0  0  0  0  0  0  0  0  0  0
    5.2130   52.5750  -24.0790 H   0  0  0  0  0  0  0  0  0  0  0  0
  2  1  2  0  0  0  0
  2  3  1  0  0  0  0
  3  4  1  0  0  0  0
  4 30  1  0  0  0  0
  4 31  1  0  0  0  0
  4  5  1  0  0  0  0
  5 32  1  6  0  0  0
  5  6  1  0  0  0  0
  5 11  1  0  0  0  0
  6 10  1  0  0  0  0
  7  6  2  0  0  0  0
  7  8  1  0  0  0  0
  8 34  1  0  0  0  0
  8  9  2  0  0  0  0
  9 35  1  0  0  0  0
 10  9  1  0  0  0  0
 11 12  1  0  0  0  0
 12 37  1  0  0  0  0
 12 36  1  0  0  0  0
 13 38  1  0  0  0  0
 13 12  1  0  0  0  0
 14 13  1  0  0  0  0
 15 14  1  0  0  0  0
 15 16  1  0  0  0  0
 16 40  1  0  0  0  0
 17 16  2  0  0  0  0
 17 41  1  0  0  0  0
 18 17  1  0  0  0  0
 19 18  1  0  0  0  0
 20 21  1  0  0  0  0
 20 18  2  0  0  0  0
 21 15  2  0  0  0  0
 22 44  1  0  0  0  0
 22 14  1  0  0  0  0
 22 23  1  0  0  0  0
 23 11  1  0  0  0  0
 23 46  1  0  0  0  0
 24  2  1  0  0  0  0
 25 48  1  0  0  0  0
 25 24  2  0  0  0  0
 26 27  2  0  0  0  0
 26 25  1  0  0  0  0
 27 28  1  0  0  0  0
 28 24  1  0  0  0  0
 29  3  1  0  0  0  0
 33  7  1  0  0  0  0
 39 13  1  0  0  0  0
 42 20  1  0  0  0  0
 43 21  1  0  0  0  0
 45 22  1  0  0  0  0
 47 23  1  0  0  0  0
 49 26  1  0  0  0  0
 50 27  1  0  0  0  0
M  END
>  <Pose>
1

>  <Score>
-4.20

$$$$

 OpenBabel05082222213D

 50 53  0  0  1  0  0  0  0  0999 V2000
    4.4520   49.9940  -13.1000 O   0  0  0  0  0  0  0  0  0  0  0  0
    5.6340   50.3240  -13.0510 C   0  0  0  0  0  0  0  0  0  0  0  0
    6.0180   51.6330  -12.8480 N   0  0  0  0  0  0  0  0  0  0  0  0
    5.0460   52.7120  -12.7760 C   0  0  0  0  0  0  0  0  0  0  0  0
    5.6090   54.1420  -13.0810 C   0  0  1  0  0  0  0  0  0  0  0  0
    6.6350   54.5200  -12.0300 C   0  0  0  0  0  0  0  0  0  0  0  0
    8.0140   54.4600  -11.9520 C   0  0  0  0  0  0  0  0  0  0  0  0
    8.3810   55.0940  -10.7400 C   0  0  0  0  0  0  0  0  0  0  0  0
    7.2090   55.4920  -10.1450 C   0  0  0  0  0  0  0  0  0  0  0  0
    6.1450   55.1190  -10.8980 O   0  0  0  0  0  0  0  0  0  0  0  0
    6.2160   54.2340  -14.4490 N   0  0  0  0  0  0  0  0  0  0  0  0
    6.2840   55.6460  -14.9330 C   0  0  0  0  0  0  0  0  0  0  0  0
    4.9070   56.3090  -15.1750 C   0  0  0  0  0  0  0  0  0  0  0  0
    4.1560   55.5150  -16.1620 N   0  0  0  0  0  0  0  0  0  0  0  0
    3.3760   56.1100  -17.1380 C   0  0  0  0  0  0  0  0  0  0  0  0
    3.3750   55.6310  -18.4600 C   0  0  0  0  0  0  0  0  0  0  0  0
    2.5160   56.1480  -19.4350 C   0  0  0  0  0  0  0  0  0  0  0  0
    1.6400   57.1670  -19.1000 C   0  0  0  0  0  0  0  0  0  0  0  0
    0.7940   57.6430  -20.0210 F   0  0  0  0  0  0  0  0  0  0  0  0
    1.6280   57.6910  -17.8180 C   0  0  0  0  0  0  0  0  0  0  0  0
    2.4940   57.1670  -16.8510 C   0  0  0  0  0  0  0  0  0  0  0  0
    4.0550   54.0760  -15.8620 C   0  0  0  0  0  0  0  0  0  0  0  0
    5.4440   53.4950  -15.4830 C   0  0  0  0  0  0  0  0  0  0  0  0
    6.7290   49.3940  -13.2220 C   0  0  0  0  0  0  0  0  0  0  0  0
    7.7790   49.3960  -14.1190 C   0  0  0  0  0  0  0  0  0  0  0  0
    8.5690   48.2610  -13.8260 C   0  0  0  0  0  0  0  0  0  0  0  0
    7.9530   47.6300  -12.7700 C   0  0  0  0  0  0  0  0  0  0  0  0
    6.8350   48.3050  -12.3960 O   0  0  0  0  0  0  0  0  0  0  0  0
    7.0090   51.8420  -12.9040 H   0  0  0  0  0  0  0  0  0  0  0  0
    4.6460   52.6630  -11.7590 H   0  0  0  0  0  0  0  0  0  0  0  0
    4.2280   52.4590  -13.4610 H   0  0  0  0  0  0  0  0  0  0  0  0
    4.7800   54.8510  -12.9940 H   0  0  0  0  0  0  0  0  0  0  0  0
    8.6770   54.0420  -12.6960 H   0  0  0  0  0  0  0  0  0  0  0  0
    9.3780   55.2600  -10.3560 H   0  0  0  0  0  0  0  0  0  0  0  0
    6.9740   56.0300   -9.2370 H   0  0  0  0  0  0  0  0  0  0  0  0
    6.8330   55.6450  -15.8860 H   0  0  0  0  0  0  0  0  0  0  0  0
    6.8990   56.2690  -14.2790 H   0  0  0  0  0  0  0  0  0  0  0  0
    5.0790   57.3420  -15.4880 H   0  0  0  0  0  0  0  0  0  0  0  0
    4.3270   56.3760  -14.2470 H   0  0  0  0  0  0  0  0  0  0  0  0
    4.0070   54.7980  -18.7490 H   0  0  0  0  0  0  0  0  0  0  0  0
    2.5150   55.7420  -20.4400 H   0  0  0  0  0  0  0  0  0  0  0  0
    0.9400   58.4920  -17.5690 H   0  0  0  0  0  0  0  0  0  0  0  0
    2.4690   57.6120  -15.8590 H   0  0  0  0  0  0  0  0  0  0  0  0
    3.7210   53.5160  -16.7440 H   0  0  0  0  0  0  0  0  0  0  0  0
    3.3290   53.9060  -15.0600 H   0  0  0  0  0  0  0  0  0  0  0  0
    6.0600   53.4920  -16.3940 H   0  0  0  0  0  0  0  0  0  0  0  0
    5.3460   52.4350  -15.2330 H   0  0  0  0  0  0  0  0  0  0  0  0
    7.9410   50.1410  -14.8860 H   0  0  0  0  0  0  0  0  0  0  0  0
    9.4750   47.9440  -14.3210 H   0  0  0  0  0  0  0  0  0  0  0  0
    8.1780   46.7390  -12.2000 H   0  0  0  0  0  0  0  0  0  0  0  0
  1  2  2  0  0  0  0
  2  3  1  0  0  0  0
  3  4  1  0  0  0  0
  4 30  1  0  0  0  0
  5 32  1  1  0  0  0
  5  4  1  0  0  0  0
  5  6  1  0  0  0  0
  6  7  2  0  0  0  0
  6 10  1  0  0  0  0
  7  8  1  0  0  0  0
  8 34  1  0  0  0  0
  8  9  2  0  0  0  0
  9 35  1  0  0  0  0
 10  9  1  0  0  0  0
 11  5  1  0  0  0  0
 12 11  1  0  0  0  0
 12 37  1  0  0  0  0
 13 12  1  0  0  0  0
 13 39  1  0  0  0  0
 14 22  1  0  0  0  0
 14 13  1  0  0  0  0
 15 21  1  0  0  0  0
 15 14  1  0  0  0  0
 16 15  2  0  0  0  0
 17 18  2  0  0  0  0
 17 16  1  0  0  0  0
 18 20  1  0  0  0  0
 19 18  1  0  0  0  0
 20 42  1  0  0  0  0
 20 21  2  0  0  0  0
 21 43  1  0  0  0  0
 22 23  1  0  0  0  0
 22 45  1  0  0  0  0
 23 47  1  0  0  0  0
 23 11  1  0  0  0  0
 24  2  1  0  0  0  0
 24 28  1  0  0  0  0
 25 26  1  0  0  0  0
 25 24  2  0  0  0  0
 26 27  2  0  0  0  0
 27 28  1  0  0  0  0
 27 50  1  0  0  0  0
 29  3  1  0  0  0  0
 31  4  1  0  0  0  0
 33  7  1  0  0  0  0
 36 12  1  0  0  0  0
 38 13  1  0  0  0  0
 40 16  1  0  0  0  0
 41 17  1  0  0  0  0
 44 22  1  0  0  0  0
 46 23  1  0  0  0  0
 48 25  1  0  0  0  0
 49 26  1  0  0  0  0
M  END
>  <Pose>
1

>  <Score>
-4.10

$$$$

 OpenBabel05082222213D

 50 53  0  0  1  0  0  0  0  0999 V2000
    3.5870   57.0550  -22.7990 O   0  0  0  0  0  0  0  0  0  0  0  0
    3.6080   55.9850  -22.1980 C   0  0  0  0  0  0  0  0  0  0  0  0
    2.9350   55.8040  -21.0070 N   0  0  0  0  0  0  0  0  0  0  0  0
    2.2410   56.8990  -20.3480 C   0  0  0  0  0  0  0  0  0  0  0  0
    2.9250   57.4370  -19.0460 C   0  0  1  0  0  0  0  0  0  0  0  0
    3.0150   58.9500  -19.1050 C   0  0  0  0  0  0  0  0  0  0  0  0
    2.1360   59.9630  -19.4410 C   0  0  0  0  0  0  0  0  0  0  0  0
    2.7980   61.1840  -19.1650 C   0  0  0  0  0  0  0  0  0  0  0  0
    4.0410   60.8470  -18.6870 C   0  0  0  0  0  0  0  0  0  0  0  0
    4.1970   59.4990  -18.6800 O   0  0  0  0  0  0  0  0  0  0  0  0
    2.1990   57.0120  -17.8050 N   0  0  0  0  0  0  0  0  0  0  0  0
    2.7750   57.6430  -16.5790 C   0  0  0  0  0  0  0  0  0  0  0  0
    4.2180   57.1970  -16.2440 C   0  0  0  0  0  0  0  0  0  0  0  0
    4.2420   55.7350  -16.0690 N   0  0  0  0  0  0  0  0  0  0  0  0
    5.0080   55.1290  -15.0890 C   0  0  0  0  0  0  0  0  0  0  0  0
    5.5320   55.8690  -14.0140 C   0  0  0  0  0  0  0  0  0  0  0  0
    6.2170   55.2580  -12.9590 C   0  0  0  0  0  0  0  0  0  0  0  0
    6.3950   53.8860  -12.9650 C   0  0  0  0  0  0  0  0  0  0  0  0
    7.0210   53.2930  -11.9410 F   0  0  0  0  0  0  0  0  0  0  0  0
    5.9220   53.1200  -14.0180 C   0  0  0  0  0  0  0  0  0  0  0  0
    5.2400   53.7420  -15.0710 C   0  0  0  0  0  0  0  0  0  0  0  0
    3.6430   54.9620  -17.1710 C   0  0  0  0  0  0  0  0  0  0  0  0
    2.2590   55.5460  -17.5630 C   0  0  0  0  0  0  0  0  0  0  0  0
    4.3480   54.8280  -22.6540 C   0  0  0  0  0  0  0  0  0  0  0  0
    5.5740   54.3310  -22.2590 C   0  0  0  0  0  0  0  0  0  0  0  0
    5.8070   53.1630  -23.0200 C   0  0  0  0  0  0  0  0  0  0  0  0
    4.7110   53.0170  -23.8390 C   0  0  0  0  0  0  0  0  0  0  0  0
    3.8200   54.0210  -23.6290 O   0  0  0  0  0  0  0  0  0  0  0  0
    3.0690   54.9210  -20.5270 H   0  0  0  0  0  0  0  0  0  0  0  0
    1.2440   56.5080  -20.1280 H   0  0  0  0  0  0  0  0  0  0  0  0
    2.1220   57.7000  -21.0870 H   0  0  0  0  0  0  0  0  0  0  0  0
    3.9500   57.0520  -19.0250 H   0  0  0  0  0  0  0  0  0  0  0  0
    1.1280   59.8360  -19.8090 H   0  0  0  0  0  0  0  0  0  0  0  0
    2.4100   62.1860  -19.2770 H   0  0  0  0  0  0  0  0  0  0  0  0
    4.8840   61.4160  -18.3210 H   0  0  0  0  0  0  0  0  0  0  0  0
    2.1300   57.3730  -15.7310 H   0  0  0  0  0  0  0  0  0  0  0  0
    2.7110   58.7340  -16.6180 H   0  0  0  0  0  0  0  0  0  0  0  0
    4.5450   57.7470  -15.3580 H   0  0  0  0  0  0  0  0  0  0  0  0
    4.9180   57.4780  -17.0400 H   0  0  0  0  0  0  0  0  0  0  0  0
    5.3670   56.9390  -13.9440 H   0  0  0  0  0  0  0  0  0  0  0  0
    6.5870   55.8480  -12.1270 H   0  0  0  0  0  0  0  0  0  0  0  0
    6.0720   52.0460  -14.0150 H   0  0  0  0  0  0  0  0  0  0  0  0
    4.8970   53.1140  -15.8890 H   0  0  0  0  0  0  0  0  0  0  0  0
    3.4600   53.9240  -16.8660 H   0  0  0  0  0  0  0  0  0  0  0  0
    4.3190   54.9460  -18.0330 H   0  0  0  0  0  0  0  0  0  0  0  0
    1.5660   55.3330  -16.7370 H   0  0  0  0  0  0  0  0  0  0  0  0
    1.8440   54.9810  -18.4020 H   0  0  0  0  0  0  0  0  0  0  0  0
    6.2110   54.7730  -21.5040 H   0  0  0  0  0  0  0  0  0  0  0  0
    6.6650   52.5090  -22.9770 H   0  0  0  0  0  0  0  0  0  0  0  0
    4.4300   52.2870  -24.5860 H   0  0  0  0  0  0  0  0  0  0  0  0
  1  2  2  0  0  0  0
  2  3  1  0  0  0  0
  3 29  1  0  0  0  0
  3  4  1  0  0  0  0
  4 30  1  0  0  0  0
  4  5  1  0  0  0  0
  5 32  1  1  0  0  0
  5 11  1  0  0  0  0
  6  5  1  0  0  0  0
  6 10  1  0  0  0  0
  7  8  1  0  0  0  0
  7  6  2  0  0  0  0
  8  9  2  0  0  0  0
  9 10  1  0  0  0  0
  9 35  1  0  0  0  0
 11 23  1  0  0  0  0
 11 12  1  0  0  0  0
 12 13  1  0  0  0  0
 12 36  1  0  0  0  0
 13 14  1  0  0  0  0
 13 38  1  0  0  0  0
 14 15  1  0  0  0  0
 15 21  2  0  0  0  0
 15 16  1  0  0  0  0
 16 40  1  0  0  0  0
 16 17  2  0  0  0  0
 17 41  1  0  0  0  0
 18 17  1  0  0  0  0
 18 19  1  0  0  0  0
 20 42  1  0  0  0  0
 20 18  2  0  0  0  0
 21 20  1  0  0  0  0
 22 44  1  0  0  0  0
 22 14  1  0  0  0  0
 23 22  1  0  0  0  0
 23 46  1  0  0  0  0
 24 25  2  0  0  0  0
 24  2  1  0  0  0  0
 25 48  1  0  0  0  0
 26 49  1  0  0  0  0
 26 25  1  0  0  0  0
 27 28  1  0  0  0  0
 27 26  2  0  0  0  0
 28 24  1  0  0  0  0
 31  4  1  0  0  0  0
 33  7  1  0  0  0  0
 34  8  1  0  0  0  0
 37 12  1  0  0  0  0
 39 13  1  0  0  0  0
 43 21  1  0  0  0  0
 45 22  1  0  0  0  0
 47 23  1  0  0  0  0
 50 27  1  0  0  0  0
M  END
>  <Pose>
1

>  <Score>
-4.10

$$$$

 OpenBabel05082222213D

 50 53  0  0  1  0  0  0  0  0999 V2000
    7.2400   54.6900  -22.4090 O   0  0  0  0  0  0  0  0  0  0  0  0
    6.1120   54.2060  -22.3740 C   0  0  0  0  0  0  0  0  0  0  0  0
    5.2620   54.4120  -21.3070 N   0  0  0  0  0  0  0  0  0  0  0  0
    5.6890   55.1350  -20.1200 C   0  0  0  0  0  0  0  0  0  0  0  0
    4.5360   55.5800  -19.1580 C   0  0  1  0  0  0  0  0  0  0  0  0
    4.8660   55.1600  -17.7380 C   0  0  0  0  0  0  0  0  0  0  0  0
    6.0270   55.0840  -16.9920 C   0  0  0  0  0  0  0  0  0  0  0  0
    5.6430   54.7310  -15.6750 C   0  0  0  0  0  0  0  0  0  0  0  0
    4.2750   54.6030  -15.6970 C   0  0  0  0  0  0  0  0  0  0  0  0
    3.7980   54.8240  -16.9470 O   0  0  0  0  0  0  0  0  0  0  0  0
    4.2880   57.0580  -19.2120 N   0  0  0  0  0  0  0  0  0  0  0  0
    2.9840   57.4270  -18.5840 C   0  0  0  0  0  0  0  0  0  0  0  0
    1.7380   56.8910  -19.3280 C   0  0  0  0  0  0  0  0  0  0  0  0
    1.7470   57.3970  -20.7110 N   0  0  0  0  0  0  0  0  0  0  0  0
    0.5880   57.8000  -21.3500 C   0  0  0  0  0  0  0  0  0  0  0  0
   -0.1270   58.9300  -20.9150 C   0  0  0  0  0  0  0  0  0  0  0  0
   -1.2390   59.4160  -21.6100 C   0  0  0  0  0  0  0  0  0  0  0  0
   -1.6600   58.7690  -22.7590 C   0  0  0  0  0  0  0  0  0  0  0  0
   -2.7040   59.2490  -23.4460 F   0  0  0  0  0  0  0  0  0  0  0  0
   -1.0050   57.6340  -23.2080 C   0  0  0  0  0  0  0  0  0  0  0  0
    0.1060   57.1550  -22.5030 C   0  0  0  0  0  0  0  0  0  0  0  0
    3.0000   57.1710  -21.4520 C   0  0  0  0  0  0  0  0  0  0  0  0
    4.2270   57.5910  -20.5990 C   0  0  0  0  0  0  0  0  0  0  0  0
    5.5740   53.3630  -23.4190 C   0  0  0  0  0  0  0  0  0  0  0  0
    6.1620   52.8610  -24.5630 C   0  0  0  0  0  0  0  0  0  0  0  0
    5.1840   52.0770  -25.2170 C   0  0  0  0  0  0  0  0  0  0  0  0
    4.0530   52.1500  -24.4360 C   0  0  0  0  0  0  0  0  0  0  0  0
    4.2750   52.9280  -23.3450 O   0  0  0  0  0  0  0  0  0  0  0  0
    4.3810   53.9110  -21.3110 H   0  0  0  0  0  0  0  0  0  0  0  0
    6.2320   56.0050  -20.5000 H   0  0  0  0  0  0  0  0  0  0  0  0
    6.4140   54.5010  -19.5960 H   0  0  0  0  0  0  0  0  0  0  0  0
    3.6300   55.0410  -19.4530 H   0  0  0  0  0  0  0  0  0  0  0  0
    7.0270   55.2910  -17.3460 H   0  0  0  0  0  0  0  0  0  0  0  0
    6.2800   54.6080  -14.8110 H   0  0  0  0  0  0  0  0  0  0  0  0
    3.5310   54.3780  -14.9450 H   0  0  0  0  0  0  0  0  0  0  0  0
    2.9220   58.5250  -18.5650 H   0  0  0  0  0  0  0  0  0  0  0  0
    2.9490   57.1460  -17.5280 H   0  0  0  0  0  0  0  0  0  0  0  0
    0.8510   57.1880  -18.7620 H   0  0  0  0  0  0  0  0  0  0  0  0
    1.7220   55.7950  -19.3440 H   0  0  0  0  0  0  0  0  0  0  0  0
    0.2030   59.4960  -20.0510 H   0  0  0  0  0  0  0  0  0  0  0  0
   -1.7560   60.3060  -21.2690 H   0  0  0  0  0  0  0  0  0  0  0  0
   -1.3470   57.1330  -24.1070 H   0  0  0  0  0  0  0  0  0  0  0  0
    0.5860   56.2540  -22.8740 H   0  0  0  0  0  0  0  0  0  0  0  0
    3.0350   57.7880  -22.3590 H   0  0  0  0  0  0  0  0  0  0  0  0
    3.0770   56.1210  -21.7560 H   0  0  0  0  0  0  0  0  0  0  0  0
    4.2100   58.6870  -20.5150 H   0  0  0  0  0  0  0  0  0  0  0  0
    5.1490   57.3870  -21.1500 H   0  0  0  0  0  0  0  0  0  0  0  0
    7.1830   53.0470  -24.8720 H   0  0  0  0  0  0  0  0  0  0  0  0
    5.2900   51.5270  -26.1400 H   0  0  0  0  0  0  0  0  0  0  0  0
    3.0630   51.7230  -24.5160 H   0  0  0  0  0  0  0  0  0  0  0  0
  1  2  2  0  0  0  0
  2  3  1  0  0  0  0
  3  4  1  0  0  0  0
  4 31  1  0  0  0  0
  4  5  1  0  0  0  0
  5 32  1  6  0  0  0
  5  6  1  0  0  0  0
  6  7  2  0  0  0  0
  6 10  1  0  0  0  0
  7  8  1  0  0  0  0
  8 34  1  0  0  0  0
  9  8  2  0  0  0  0
  9 35  1  0  0  0  0
 10  9  1  0  0  0  0
 11  5  1  0  0  0  0
 11 12  1  0  0  0  0
 12 36  1  0  0  0  0
 12 37  1  0  0  0  0
 13 38  1  0  0  0  0
 13 12  1  0  0  0  0
 14 13  1  0  0  0  0
 15 16  1  0  0  0  0
 15 14  1  0  0  0  0
 16 40  1  0  0  0  0
 17 41  1  0  0  0  0
 17 16  2  0  0  0  0
 18 17  1  0  0  0  0
 19 18  1  0  0  0  0
 20 18  2  0  0  0  0
 20 21  1  0  0  0  0
 21 15  2  0  0  0  0
 22 14  1  0  0  0  0
 22 23  1  0  0  0  0
 23 46  1  0  0  0  0
 23 11  1  0  0  0  0
 24 28  1  0  0  0  0
 24  2  1  0  0  0  0
 25 24  2  0  0  0  0
 26 25  1  0  0  0  0
 26 27  2  0  0  0  0
 27 28  1  0  0  0  0
 29  3  1  0  0  0  0
 30  4  1  0  0  0  0
 33  7  1  0  0  0  0
 39 13  1  0  0  0  0
 42 20  1  0  0  0  0
 43 21  1  0  0  0  0
 44 22  1  0  0  0  0
 45 22  1  0  0  0  0
 47 23  1  0  0  0  0
 48 25  1  0  0  0  0
 49 26  1  0  0  0  0
 50 27  1  0  0  0  0
M  END
>  <Pose>
1

>  <Score>
-4.05

$$$$

 OpenBabel05082222213D

 50 53  0  0  1  0  0  0  0  0999 V2000
    6.9780   54.9530  -22.8160 O   0  0  0  0  0  0  0  0  0  0  0  0
    6.0230   54.2430  -22.5140 C   0  0  0  0  0  0  0  0  0  0  0  0
    5.5160   54.2110  -21.2310 N   0  0  0  0  0  0  0  0  0  0  0  0
    6.1440   54.9420  -20.1420 C   0  0  0  0  0  0  0  0  0  0  0  0
    5.2020   55.2920  -18.9410 C   0  0  1  0  0  0  0  0  0  0  0  0
    5.7020   54.6050  -17.6840 C   0  0  0  0  0  0  0  0  0  0  0  0
    5.3660   54.6650  -16.3450 C   0  0  0  0  0  0  0  0  0  0  0  0
    6.1310   53.6690  -15.6890 C   0  0  0  0  0  0  0  0  0  0  0  0
    6.8940   53.0700  -16.6600 C   0  0  0  0  0  0  0  0  0  0  0  0
    6.6700   53.6510  -17.8650 O   0  0  0  0  0  0  0  0  0  0  0  0
    5.0970   56.7700  -18.7120 N   0  0  0  0  0  0  0  0  0  0  0  0
    3.8510   57.1310  -17.9700 C   0  0  0  0  0  0  0  0  0  0  0  0
    2.5400   56.8580  -18.7440 C   0  0  0  0  0  0  0  0  0  0  0  0
    2.5610   57.6110  -20.0100 N   0  0  0  0  0  0  0  0  0  0  0  0
    1.4300   58.2280  -20.5120 C   0  0  0  0  0  0  0  0  0  0  0  0
    0.4440   57.4950  -21.1960 C   0  0  0  0  0  0  0  0  0  0  0  0
   -0.7550   58.0790  -21.6170 C   0  0  0  0  0  0  0  0  0  0  0  0
   -0.9860   59.4200  -21.3630 C   0  0  0  0  0  0  0  0  0  0  0  0
   -2.1450   59.9750  -21.7350 F   0  0  0  0  0  0  0  0  0  0  0  0
   -0.0300   60.1890  -20.7190 C   0  0  0  0  0  0  0  0  0  0  0  0
    1.1670   59.5940  -20.3040 C   0  0  0  0  0  0  0  0  0  0  0  0
    3.7660   57.4160  -20.8340 C   0  0  0  0  0  0  0  0  0  0  0  0
    5.0500   57.5560  -19.9730 C   0  0  0  0  0  0  0  0  0  0  0  0
    5.3550   53.3640  -23.4480 C   0  0  0  0  0  0  0  0  0  0  0  0
    5.8660   52.5480  -24.4380 C   0  0  0  0  0  0  0  0  0  0  0  0
    4.7660   51.8910  -25.0360 C   0  0  0  0  0  0  0  0  0  0  0  0
    3.6470   52.3490  -24.3800 C   0  0  0  0  0  0  0  0  0  0  0  0
    3.9900   53.2440  -23.4160 O   0  0  0  0  0  0  0  0  0  0  0  0
    4.7820   53.5380  -21.0380 H   0  0  0  0  0  0  0  0  0  0  0  0
    6.5350   55.8530  -20.6040 H   0  0  0  0  0  0  0  0  0  0  0  0
    7.0040   54.3510  -19.8070 H   0  0  0  0  0  0  0  0  0  0  0  0
    4.2130   54.8800  -19.1630 H   0  0  0  0  0  0  0  0  0  0  0  0
    4.6330   55.3220  -15.9000 H   0  0  0  0  0  0  0  0  0  0  0  0
    6.1130   53.4050  -14.6410 H   0  0  0  0  0  0  0  0  0  0  0  0
    7.6030   52.2530  -16.6600 H   0  0  0  0  0  0  0  0  0  0  0  0
    3.8960   58.2070  -17.7470 H   0  0  0  0  0  0  0  0  0  0  0  0
    3.8180   56.6620  -16.9830 H   0  0  0  0  0  0  0  0  0  0  0  0
    1.7020   57.1220  -18.0940 H   0  0  0  0  0  0  0  0  0  0  0  0
    2.4180   55.7900  -18.9600 H   0  0  0  0  0  0  0  0  0  0  0  0
    0.5630   56.4300  -21.3670 H   0  0  0  0  0  0  0  0  0  0  0  0
   -1.5110   57.4850  -22.1180 H   0  0  0  0  0  0  0  0  0  0  0  0
   -0.2210   61.2400  -20.5300 H   0  0  0  0  0  0  0  0  0  0  0  0
    1.9010   60.2300  -19.8160 H   0  0  0  0  0  0  0  0  0  0  0  0
    3.8360   58.1850  -21.6130 H   0  0  0  0  0  0  0  0  0  0  0  0
    3.7330   56.4380  -21.3290 H   0  0  0  0  0  0  0  0  0  0  0  0
    5.1420   58.6150  -19.6890 H   0  0  0  0  0  0  0  0  0  0  0  0
    5.9330   57.3770  -20.5930 H   0  0  0  0  0  0  0  0  0  0  0  0
    6.9160   52.4480  -24.6820 H   0  0  0  0  0  0  0  0  0  0  0  0
    4.7870   51.1740  -25.8430 H   0  0  0  0  0  0  0  0  0  0  0  0
    2.5900   52.1410  -24.4740 H   0  0  0  0  0  0  0  0  0  0  0  0
  1  2  2  0  0  0  0
  2  3  1  0  0  0  0
  3 29  1  0  0  0  0
  3  4  1  0  0  0  0
  4 31  1  0  0  0  0
  4  5  1  0  0  0  0
  5 32  1  6  0  0  0
  5 11  1  0  0  0  0
  5  6  1  0  0  0  0
  6  7  2  0  0  0  0
  7 33  1  0  0  0  0
  7  8  1  0  0  0  0
  8 34  1  0  0  0  0
  9  8  2  0  0  0  0
 10  6  1  0  0  0  0
 10  9  1  0  0  0  0
 11 12  1  0  0  0  0
 12 36  1  0  0  0  0
 12 37  1  0  0  0  0
 13 38  1  0  0  0  0
 13 12  1  0  0  0  0
 14 13  1  0  0  0  0
 15 21  1  0  0  0  0
 15 14  1  0  0  0  0
 16 15  2  0  0  0  0
 17 18  2  0  0  0  0
 17 16  1  0  0  0  0
 18 20  1  0  0  0  0
 19 18  1  0  0  0  0
 20 42  1  0  0  0  0
 20 21  2  0  0  0  0
 21 43  1  0  0  0  0
 22 14  1  0  0  0  0
 22 23  1  0  0  0  0
 23 46  1  0  0  0  0
 23 11  1  0  0  0  0
 24 28  1  0  0  0  0
 24  2  1  0  0  0  0
 25 24  2  0  0  0  0
 26 25  1  0  0  0  0
 26 27  2  0  0  0  0
 27 28  1  0  0  0  0
 30  4  1  0  0  0  0
 35  9  1  0  0  0  0
 39 13  1  0  0  0  0
 40 16  1  0  0  0  0
 41 17  1  0  0  0  0
 44 22  1  0  0  0  0
 45 22  1  0  0  0  0
 47 23  1  0  0  0  0
 48 25  1  0  0  0  0
 49 26  1  0  0  0  0
 50 27  1  0  0  0  0
M  END
>  <Pose>
1

>  <Score>
-4.02

$$$$

 OpenBabel05082222213D

 50 53  0  0  1  0  0  0  0  0999 V2000
    0.0440   57.3260  -23.4610 O   0  0  0  0  0  0  0  0  0  0  0  0
   -0.6920   57.9110  -22.6720 C   0  0  0  0  0  0  0  0  0  0  0  0
   -0.5380   57.7950  -21.3070 N   0  0  0  0  0  0  0  0  0  0  0  0
    0.4450   56.8960  -20.7230 C   0  0  0  0  0  0  0  0  0  0  0  0
    0.9010   57.2560  -19.2690 C   0  0  1  0  0  0  0  0  0  0  0  0
    2.1760   56.5060  -18.9340 C   0  0  0  0  0  0  0  0  0  0  0  0
    3.5050   56.6400  -19.2910 C   0  0  0  0  0  0  0  0  0  0  0  0
    4.2290   55.6900  -18.5290 C   0  0  0  0  0  0  0  0  0  0  0  0
    3.3020   55.0280  -17.7620 C   0  0  0  0  0  0  0  0  0  0  0  0
    2.0540   55.4880  -18.0240 O   0  0  0  0  0  0  0  0  0  0  0  0
    1.1090   58.7300  -19.0860 N   0  0  0  0  0  0  0  0  0  0  0  0
    2.5570   59.0950  -19.0980 C   0  0  0  0  0  0  0  0  0  0  0  0
    3.3710   58.5320  -17.9090 C   0  0  0  0  0  0  0  0  0  0  0  0
    2.7810   59.0160  -16.6490 N   0  0  0  0  0  0  0  0  0  0  0  0
    3.5640   59.3950  -15.5730 C   0  0  0  0  0  0  0  0  0  0  0  0
    3.5800   60.7250  -15.1180 C   0  0  0  0  0  0  0  0  0  0  0  0
    4.2790   61.1070  -13.9680 C   0  0  0  0  0  0  0  0  0  0  0  0
    4.9860   60.1550  -13.2540 C   0  0  0  0  0  0  0  0  0  0  0  0
    5.6310   60.5090  -12.1360 F   0  0  0  0  0  0  0  0  0  0  0  0
    5.0240   58.8380  -13.6820 C   0  0  0  0  0  0  0  0  0  0  0  0
    4.3220   58.4680  -14.8350 C   0  0  0  0  0  0  0  0  0  0  0  0
    1.3320   58.7920  -16.5100 C   0  0  0  0  0  0  0  0  0  0  0  0
    0.5810   59.2400  -17.7930 C   0  0  0  0  0  0  0  0  0  0  0  0
   -1.7950   58.7520  -23.0850 C   0  0  0  0  0  0  0  0  0  0  0  0
   -2.3720   58.9350  -24.3260 C   0  0  0  0  0  0  0  0  0  0  0  0
   -3.4310   59.8550  -24.1530 C   0  0  0  0  0  0  0  0  0  0  0  0
   -3.4370   60.1840  -22.8170 C   0  0  0  0  0  0  0  0  0  0  0  0
   -2.4480   59.5240  -22.1590 O   0  0  0  0  0  0  0  0  0  0  0  0
   -1.2350   58.2390  -20.7200 H   0  0  0  0  0  0  0  0  0  0  0  0
    1.2940   56.9220  -21.4120 H   0  0  0  0  0  0  0  0  0  0  0  0
    0.0240   55.8840  -20.7620 H   0  0  0  0  0  0  0  0  0  0  0  0
    0.1270   56.9030  -18.5800 H   0  0  0  0  0  0  0  0  0  0  0  0
    3.9080   57.3590  -19.9900 H   0  0  0  0  0  0  0  0  0  0  0  0
    5.2970   55.5240  -18.5230 H   0  0  0  0  0  0  0  0  0  0  0  0
    3.3660   54.2500  -17.0130 H   0  0  0  0  0  0  0  0  0  0  0  0
    2.6250   60.1920  -19.0680 H   0  0  0  0  0  0  0  0  0  0  0  0
    3.0330   58.8300  -20.0460 H   0  0  0  0  0  0  0  0  0  0  0  0
    4.4150   58.8280  -18.0430 H   0  0  0  0  0  0  0  0  0  0  0  0
    3.3750   57.4360  -17.9090 H   0  0  0  0  0  0  0  0  0  0  0  0
    2.9950   61.4900  -15.6180 H   0  0  0  0  0  0  0  0  0  0  0  0
    4.2520   62.1340  -13.6230 H   0  0  0  0  0  0  0  0  0  0  0  0
    5.5860   58.1030  -13.1160 H   0  0  0  0  0  0  0  0  0  0  0  0
    4.3870   57.4300  -15.1520 H   0  0  0  0  0  0  0  0  0  0  0  0
    0.9210   59.3950  -15.6900 H   0  0  0  0  0  0  0  0  0  0  0  0
    1.1300   57.7380  -16.2880 H   0  0  0  0  0  0  0  0  0  0  0  0
    0.6350   60.3370  -17.8400 H   0  0  0  0  0  0  0  0  0  0  0  0
   -0.4880   59.0380  -17.6850 H   0  0  0  0  0  0  0  0  0  0  0  0
   -2.0530   58.4490  -25.2380 H   0  0  0  0  0  0  0  0  0  0  0  0
   -4.1070   60.2300  -24.9070 H   0  0  0  0  0  0  0  0  0  0  0  0
   -4.0520   60.8360  -22.2120 H   0  0  0  0  0  0  0  0  0  0  0  0
  1  2  2  0  0  0  0
  2  3  1  0  0  0  0
  3  4  1  0  0  0  0
  3 29  1  0  0  0  0
  4  5  1  0  0  0  0
  5 11  1  0  0  0  0
  5  6  1  0  0  0  0
  5 32  1  1  0  0  0
  6 10  1  0  0  0  0
  7  6  2  0  0  0  0
  7  8  1  0  0  0  0
  8 34  1  0  0  0  0
  8  9  2  0  0  0  0
  9 35  1  0  0  0  0
 10  9  1  0  0  0  0
 11 23  1  0  0  0  0
 12 11  1  0  0  0  0
 12 36  1  0  0  0  0
 12 13  1  0  0  0  0
 13 39  1  0  0  0  0
 13 14  1  0  0  0  0
 14 22  1  0  0  0  0
 14 15  1  0  0  0  0
 15 16  2  0  0  0  0
 15 21  1  0  0  0  0
 16 17  1  0  0  0  0
 17 41  1  0  0  0  0
 17 18  2  0  0  0  0
 18 19  1  0  0  0  0
 20 18  1  0  0  0  0
 20 42  1  0  0  0  0
 21 20  2  0  0  0  0
 22 45  1  0  0  0  0
 22 44  1  0  0  0  0
 23 47  1  0  0  0  0
 23 22  1  0  0  0  0
 24  2  1  0  0  0  0
 24 28  1  0  0  0  0
 25 26  1  0  0  0  0
 25 24  2  0  0  0  0
 26 27  2  0  0  0  0
 27 50  1  0  0  0  0
 27 28  1  0  0  0  0
 30  4  1  0  0  0  0
 31  4  1  0  0  0  0
 33  7  1  0  0  0  0
 37 12  1  0  0  0  0
 38 13  1  0  0  0  0
 40 16  1  0  0  0  0
 43 21  1  0  0  0  0
 46 23  1  0  0  0  0
 48 25  1  0  0  0  0
 49 26  1  0  0  0  0
M  END
>  <Pose>
1

>  <Score>
-3.98

$$$$

 OpenBabel05082222213D

 50 53  0  0  1  0  0  0  0  0999 V2000
    8.3570   50.3870  -14.5980 O   0  0  0  0  0  0  0  0  0  0  0  0
    7.6240   50.1090  -15.5430 C   0  0  0  0  0  0  0  0  0  0  0  0
    7.0830   51.0820  -16.3580 N   0  0  0  0  0  0  0  0  0  0  0  0
    7.2720   52.4980  -16.0840 C   0  0  0  0  0  0  0  0  0  0  0  0
    5.9700   53.2870  -15.7170 C   0  0  1  0  0  0  0  0  0  0  0  0
    5.6250   53.0510  -14.2590 C   0  0  0  0  0  0  0  0  0  0  0  0
    4.9820   52.0440  -13.5630 C   0  0  0  0  0  0  0  0  0  0  0  0
    5.0960   52.3620  -12.1880 C   0  0  0  0  0  0  0  0  0  0  0  0
    5.7900   53.5450  -12.1240 C   0  0  0  0  0  0  0  0  0  0  0  0
    6.0840   53.9900  -13.3720 O   0  0  0  0  0  0  0  0  0  0  0  0
    6.1010   54.7570  -15.9820 N   0  0  0  0  0  0  0  0  0  0  0  0
    4.8390   55.4940  -15.6700 C   0  0  0  0  0  0  0  0  0  0  0  0
    3.6430   55.1350  -16.5830 C   0  0  0  0  0  0  0  0  0  0  0  0
    4.0060   55.4080  -17.9840 N   0  0  0  0  0  0  0  0  0  0  0  0
    3.1030   55.9510  -18.8800 C   0  0  0  0  0  0  0  0  0  0  0  0
    1.9380   56.6000  -18.4360 C   0  0  0  0  0  0  0  0  0  0  0  0
    1.0680   57.2480  -19.3190 C   0  0  0  0  0  0  0  0  0  0  0  0
    1.3510   57.2510  -20.6740 C   0  0  0  0  0  0  0  0  0  0  0  0
    0.5380   57.8970  -21.5190 F   0  0  0  0  0  0  0  0  0  0  0  0
    2.4710   56.5980  -21.1610 C   0  0  0  0  0  0  0  0  0  0  0  0
    3.3330   55.9510  -20.2680 C   0  0  0  0  0  0  0  0  0  0  0  0
    5.2720   54.8030  -18.4320 C   0  0  0  0  0  0  0  0  0  0  0  0
    6.4040   55.0710  -17.4040 C   0  0  0  0  0  0  0  0  0  0  0  0
    7.2390   48.7570  -15.8830 C   0  0  0  0  0  0  0  0  0  0  0  0
    7.5230   47.5570  -15.2610 C   0  0  0  0  0  0  0  0  0  0  0  0
    6.8750   46.5460  -16.0060 C   0  0  0  0  0  0  0  0  0  0  0  0
    6.2360   47.1860  -17.0430 C   0  0  0  0  0  0  0  0  0  0  0  0
    6.4510   48.5260  -16.9810 O   0  0  0  0  0  0  0  0  0  0  0  0
    6.4210   50.7830  -17.0640 H   0  0  0  0  0  0  0  0  0  0  0  0
    7.7250   52.9020  -16.9940 H   0  0  0  0  0  0  0  0  0  0  0  0
    8.0170   52.5790  -15.2850 H   0  0  0  0  0  0  0  0  0  0  0  0
    5.1510   52.8750  -16.3150 H   0  0  0  0  0  0  0  0  0  0  0  0
    4.5170   51.1680  -13.9940 H   0  0  0  0  0  0  0  0  0  0  0  0
    4.7370   51.7890  -11.3450 H   0  0  0  0  0  0  0  0  0  0  0  0
    6.1440   54.1650  -11.3120 H   0  0  0  0  0  0  0  0  0  0  0  0
    5.0450   56.5690  -15.7850 H   0  0  0  0  0  0  0  0  0  0  0  0
    4.5620   55.3930  -14.6180 H   0  0  0  0  0  0  0  0  0  0  0  0
    2.7740   55.7020  -16.2400 H   0  0  0  0  0  0  0  0  0  0  0  0
    3.3640   54.0800  -16.4800 H   0  0  0  0  0  0  0  0  0  0  0  0
    1.7090   56.6670  -17.3780 H   0  0  0  0  0  0  0  0  0  0  0  0
    0.1910   57.7660  -18.9480 H   0  0  0  0  0  0  0  0  0  0  0  0
    2.6790   56.6030  -22.2250 H   0  0  0  0  0  0  0  0  0  0  0  0
    4.1940   55.4350  -20.6850 H   0  0  0  0  0  0  0  0  0  0  0  0
    5.6070   55.2500  -19.3760 H   0  0  0  0  0  0  0  0  0  0  0  0
    5.1410   53.7270  -18.5960 H   0  0  0  0  0  0  0  0  0  0  0  0
    6.6410   56.1440  -17.4470 H   0  0  0  0  0  0  0  0  0  0  0  0
    7.3280   54.5890  -17.7360 H   0  0  0  0  0  0  0  0  0  0  0  0
    8.1280   47.4450  -14.3700 H   0  0  0  0  0  0  0  0  0  0  0  0
    6.8730   45.4840  -15.8110 H   0  0  0  0  0  0  0  0  0  0  0  0
    5.6190   46.8460  -17.8620 H   0  0  0  0  0  0  0  0  0  0  0  0
  2  1  2  0  0  0  0
  3  4  1  0  0  0  0
  3  2  1  0  0  0  0
  4  5  1  0  0  0  0
  4 31  1  0  0  0  0
  5 32  1  6  0  0  0
  5  6  1  0  0  0  0
  6  7  2  0  0  0  0
  6 10  1  0  0  0  0
  7  8  1  0  0  0  0
  8  9  2  0  0  0  0
  8 34  1  0  0  0  0
  9 35  1  0  0  0  0
 10  9  1  0  0  0  0
 11  5  1  0  0  0  0
 11 12  1  0  0  0  0
 12 37  1  0  0  0  0
 13 39  1  0  0  0  0
 13 38  1  0  0  0  0
 13 12  1  0  0  0  0
 14 13  1  0  0  0  0
 15 16  1  0  0  0  0
 15 14  1  0  0  0  0
 16 40  1  0  0  0  0
 17 41  1  0  0  0  0
 17 16  2  0  0  0  0
 18 17  1  0  0  0  0
 19 18  1  0  0  0  0
 20 18  2  0  0  0  0
 20 21  1  0  0  0  0
 21 15  2  0  0  0  0
 22 14  1  0  0  0  0
 22 23  1  0  0  0  0
 23 11  1  0  0  0  0
 24  2  1  0  0  0  0
 24 25  2  0  0  0  0
 25 48  1  0  0  0  0
 26 49  1  0  0  0  0
 26 25  1  0  0  0  0
 27 28  1  0  0  0  0
 27 26  2  0  0  0  0
 28 24  1  0  0  0  0
 29  3  1  0  0  0  0
 30  4  1  0  0  0  0
 33  7  1  0  0  0  0
 36 12  1  0  0  0  0
 42 20  1  0  0  0  0
 43 21  1  0  0  0  0
 44 22  1  0  0  0  0
 45 22  1  0  0  0  0
 46 23  1  0  0  0  0
 47 23  1  0  0  0  0
 50 27  1  0  0  0  0
M  END
>  <Pose>
1

>  <Score>
-3.94

$$$$

 OpenBabel05082222213D

 50 53  0  0  1  0  0  0  0  0999 V2000
    6.0260   56.4290  -22.6210 O   0  0  0  0  0  0  0  0  0  0  0  0
    5.2730   55.5190  -22.2850 C   0  0  0  0  0  0  0  0  0  0  0  0
    4.5760   55.5510  -21.0950 N   0  0  0  0  0  0  0  0  0  0  0  0
    4.7670   56.6200  -20.1270 C   0  0  0  0  0  0  0  0  0  0  0  0
    3.5890   56.8230  -19.1140 C   0  0  1  0  0  0  0  0  0  0  0  0
    2.3530   57.2910  -19.8580 C   0  0  0  0  0  0  0  0  0  0  0  0
    1.9300   58.5020  -20.3740 C   0  0  0  0  0  0  0  0  0  0  0  0
    0.7230   58.2480  -21.0710 C   0  0  0  0  0  0  0  0  0  0  0  0
    0.4760   56.9040  -20.9330 C   0  0  0  0  0  0  0  0  0  0  0  0
    1.4350   56.3220  -20.1710 O   0  0  0  0  0  0  0  0  0  0  0  0
    3.2820   55.5750  -18.3410 N   0  0  0  0  0  0  0  0  0  0  0  0
    2.6900   55.8810  -17.0030 C   0  0  0  0  0  0  0  0  0  0  0  0
    3.6470   56.6060  -16.0270 C   0  0  0  0  0  0  0  0  0  0  0  0
    4.8480   55.7780  -15.8250 N   0  0  0  0  0  0  0  0  0  0  0  0
    5.4550   55.6610  -14.5880 C   0  0  0  0  0  0  0  0  0  0  0  0
    5.6610   56.7860  -13.7690 C   0  0  0  0  0  0  0  0  0  0  0  0
    6.1740   56.6750  -12.4730 C   0  0  0  0  0  0  0  0  0  0  0  0
    6.4980   55.4260  -11.9730 C   0  0  0  0  0  0  0  0  0  0  0  0
    6.9600   55.3110  -10.7220 F   0  0  0  0  0  0  0  0  0  0  0  0
    6.3410   54.2930  -12.7550 C   0  0  0  0  0  0  0  0  0  0  0  0
    5.8290   54.4160  -14.0520 C   0  0  0  0  0  0  0  0  0  0  0  0
    5.5170   55.3320  -17.0600 C   0  0  0  0  0  0  0  0  0  0  0  0
    4.4860   54.7480  -18.0630 C   0  0  0  0  0  0  0  0  0  0  0  0
    5.0590   54.3270  -23.0760 C   0  0  0  0  0  0  0  0  0  0  0  0
    3.9710   53.9290  -23.8280 C   0  0  0  0  0  0  0  0  0  0  0  0
    4.3090   52.6870  -24.4120 C   0  0  0  0  0  0  0  0  0  0  0  0
    5.5820   52.3970  -23.9800 C   0  0  0  0  0  0  0  0  0  0  0  0
    6.0480   53.3820  -23.1680 O   0  0  0  0  0  0  0  0  0  0  0  0
    4.0400   54.7270  -20.8470 H   0  0  0  0  0  0  0  0  0  0  0  0
    4.9190   57.5200  -20.7280 H   0  0  0  0  0  0  0  0  0  0  0  0
    5.7060   56.4170  -19.6000 H   0  0  0  0  0  0  0  0  0  0  0  0
    3.8770   57.6240  -18.4260 H   0  0  0  0  0  0  0  0  0  0  0  0
    2.4460   59.4470  -20.2870 H   0  0  0  0  0  0  0  0  0  0  0  0
    0.1200   58.9520  -21.6270 H   0  0  0  0  0  0  0  0  0  0  0  0
   -0.2940   56.2400  -21.3020 H   0  0  0  0  0  0  0  0  0  0  0  0
    2.3950   54.9270  -16.5440 H   0  0  0  0  0  0  0  0  0  0  0  0
    1.7480   56.4290  -17.0940 H   0  0  0  0  0  0  0  0  0  0  0  0
    3.0980   56.8100  -15.1040 H   0  0  0  0  0  0  0  0  0  0  0  0
    3.9450   57.5880  -16.4150 H   0  0  0  0  0  0  0  0  0  0  0  0
    5.3690   57.7760  -14.1030 H   0  0  0  0  0  0  0  0  0  0  0  0
    6.2970   57.5550  -11.8520 H   0  0  0  0  0  0  0  0  0  0  0  0
    6.6040   53.3200  -12.3540 H   0  0  0  0  0  0  0  0  0  0  0  0
    5.7340   53.5090  -14.6430 H   0  0  0  0  0  0  0  0  0  0  0  0
    6.2280   54.5250  -16.8490 H   0  0  0  0  0  0  0  0  0  0  0  0
    6.0720   56.1620  -17.5110 H   0  0  0  0  0  0  0  0  0  0  0  0
    4.1250   53.7960  -17.6470 H   0  0  0  0  0  0  0  0  0  0  0  0
    4.9940   54.4510  -18.9850 H   0  0  0  0  0  0  0  0  0  0  0  0
    3.0490   54.4870  -23.9320 H   0  0  0  0  0  0  0  0  0  0  0  0
    3.7010   52.0810  -25.0670 H   0  0  0  0  0  0  0  0  0  0  0  0
    6.2600   51.5730  -24.1570 H   0  0  0  0  0  0  0  0  0  0  0  0
  1  2  2  0  0  0  0
  2  3  1  0  0  0  0
  3 29  1  0  0  0  0
  3  4  1  0  0  0  0
  4 31  1  0  0  0  0
  4  5  1  0  0  0  0
  5 32  1  1  0  0  0
  5 11  1  0  0  0  0
  6  5  1  0  0  0  0
  7 33  1  0  0  0  0
  7  6  2  0  0  0  0
  8  9  2  0  0  0  0
  8  7  1  0  0  0  0
  9 10  1  0  0  0  0
 10  6  1  0  0  0  0
 11 23  1  0  0  0  0
 11 12  1  0  0  0  0
 12 36  1  0  0  0  0
 12 13  1  0  0  0  0
 13 14  1  0  0  0  0
 13 38  1  0  0  0  0
 14 15  1  0  0  0  0
 15 21  2  0  0  0  0
 15 16  1  0  0  0  0
 16 17  2  0  0  0  0
 17 18  1  0  0  0  0
 17 41  1  0  0  0  0
 18 19  1  0  0  0  0
 20 42  1  0  0  0  0
 20 18  2  0  0  0  0
 21 20  1  0  0  0  0
 22 44  1  0  0  0  0
 22 14  1  0  0  0  0
 23 46  1  0  0  0  0
 23 22  1  0  0  0  0
 24  2  1  0  0  0  0
 25 24  2  0  0  0  0
 26 27  2  0  0  0  0
 26 25  1  0  0  0  0
 27 28  1  0  0  0  0
 28 24  1  0  0  0  0
 30  4  1  0  0  0  0
 34  8  1  0  0  0  0
 35  9  1  0  0  0  0
 37 12  1  0  0  0  0
 39 13  1  0  0  0  0
 40 16  1  0  0  0  0
 43 21  1  0  0  0  0
 45 22  1  0  0  0  0
 47 23  1  0  0  0  0
 48 25  1  0  0  0  0
 49 26  1  0  0  0  0
 50 27  1  0  0  0  0
M  END
>  <Pose>
1

>  <Score>
-3.88

$$$$

 OpenBabel05082222213D

 50 53  0  0  1  0  0  0  0  0999 V2000
    2.1160   54.7560  -17.1940 O   0  0  0  0  0  0  0  0  0  0  0  0
    3.0160   55.4120  -17.7120 C   0  0  0  0  0  0  0  0  0  0  0  0
    4.1790   55.7160  -17.0350 N   0  0  0  0  0  0  0  0  0  0  0  0
    4.3650   55.3590  -15.6370 C   0  0  0  0  0  0  0  0  0  0  0  0
    5.7810   54.7980  -15.2730 C   0  0  1  0  0  0  0  0  0  0  0  0
    6.8420   55.8220  -15.6280 C   0  0  0  0  0  0  0  0  0  0  0  0
    7.5880   56.7380  -14.9100 C   0  0  0  0  0  0  0  0  0  0  0  0
    8.5080   57.3150  -15.8190 C   0  0  0  0  0  0  0  0  0  0  0  0
    8.2640   56.7290  -17.0370 C   0  0  0  0  0  0  0  0  0  0  0  0
    7.2350   55.8500  -16.9420 O   0  0  0  0  0  0  0  0  0  0  0  0
    5.8910   54.4260  -13.8240 N   0  0  0  0  0  0  0  0  0  0  0  0
    7.2870   54.0520  -13.4490 C   0  0  0  0  0  0  0  0  0  0  0  0
    7.8110   52.7630  -14.1260 C   0  0  0  0  0  0  0  0  0  0  0  0
    6.9210   51.6420  -13.7800 N   0  0  0  0  0  0  0  0  0  0  0  0
    7.4110   50.3770  -13.5090 C   0  0  0  0  0  0  0  0  0  0  0  0
    8.7490   50.1820  -13.1220 C   0  0  0  0  0  0  0  0  0  0  0  0
    9.2360   48.9280  -12.7400 C   0  0  0  0  0  0  0  0  0  0  0  0
    8.3840   47.8370  -12.7450 C   0  0  0  0  0  0  0  0  0  0  0  0
    8.8370   46.6410  -12.3490 F   0  0  0  0  0  0  0  0  0  0  0  0
    7.0660   47.9750  -13.1480 C   0  0  0  0  0  0  0  0  0  0  0  0
    6.5910   49.2350  -13.5300 C   0  0  0  0  0  0  0  0  0  0  0  0
    5.4890   51.8790  -14.0280 C   0  0  0  0  0  0  0  0  0  0  0  0
    5.0520   53.2550  -13.4550 C   0  0  0  0  0  0  0  0  0  0  0  0
    2.9440   55.9450  -19.0540 C   0  0  0  0  0  0  0  0  0  0  0  0
    3.9320   56.1460  -19.9970 C   0  0  0  0  0  0  0  0  0  0  0  0
    3.3000   56.6730  -21.1470 C   0  0  0  0  0  0  0  0  0  0  0  0
    1.9630   56.7670  -20.8380 C   0  0  0  0  0  0  0  0  0  0  0  0
    1.7340   56.3320  -19.5710 O   0  0  0  0  0  0  0  0  0  0  0  0
    4.8390   56.3310  -17.4960 H   0  0  0  0  0  0  0  0  0  0  0  0
    3.5900   54.6150  -15.4310 H   0  0  0  0  0  0  0  0  0  0  0  0
    4.1300   56.2480  -15.0410 H   0  0  0  0  0  0  0  0  0  0  0  0
    5.9600   53.9160  -15.8960 H   0  0  0  0  0  0  0  0  0  0  0  0
    7.5030   56.9400  -13.8520 H   0  0  0  0  0  0  0  0  0  0  0  0
    9.2710   58.0520  -15.6090 H   0  0  0  0  0  0  0  0  0  0  0  0
    8.7150   56.8150  -18.0150 H   0  0  0  0  0  0  0  0  0  0  0  0
    7.3100   53.8980  -12.3610 H   0  0  0  0  0  0  0  0  0  0  0  0
    7.9850   54.8790  -13.6100 H   0  0  0  0  0  0  0  0  0  0  0  0
    8.8460   52.6110  -13.8090 H   0  0  0  0  0  0  0  0  0  0  0  0
    7.8500   52.8710  -15.2160 H   0  0  0  0  0  0  0  0  0  0  0  0
    9.4340   51.0210  -13.0520 H   0  0  0  0  0  0  0  0  0  0  0  0
   10.2650   48.8110  -12.4180 H   0  0  0  0  0  0  0  0  0  0  0  0
    6.4100   47.1110  -13.1520 H   0  0  0  0  0  0  0  0  0  0  0  0
    5.5560   49.3040  -13.8560 H   0  0  0  0  0  0  0  0  0  0  0  0
    4.8740   51.1280  -13.5170 H   0  0  0  0  0  0  0  0  0  0  0  0
    5.2740   51.8170  -15.1010 H   0  0  0  0  0  0  0  0  0  0  0  0
    5.0810   53.1780  -12.3590 H   0  0  0  0  0  0  0  0  0  0  0  0
    3.9960   53.4290  -13.6760 H   0  0  0  0  0  0  0  0  0  0  0  0
    4.9820   55.9270  -19.8550 H   0  0  0  0  0  0  0  0  0  0  0  0
    3.7620   56.9480  -22.0840 H   0  0  0  0  0  0  0  0  0  0  0  0
    1.0930   57.1040  -21.3840 H   0  0  0  0  0  0  0  0  0  0  0  0
  2  1  2  0  0  0  0
  2  3  1  0  0  0  0
  3  4  1  0  0  0  0
  4 30  1  0  0  0  0
  4  5  1  0  0  0  0
  4 31  1  0  0  0  0
  5 32  1  6  0  0  0
  5 11  1  0  0  0  0
  6  5  1  0  0  0  0
  6  7  2  0  0  0  0
  7 33  1  0  0  0  0
  8 34  1  0  0  0  0
  8  7  1  0  0  0  0
  9 10  1  0  0  0  0
  9  8  2  0  0  0  0
 10  6  1  0  0  0  0
 11 23  1  0  0  0  0
 11 12  1  0  0  0  0
 12 36  1  0  0  0  0
 13 38  1  0  0  0  0
 13 14  1  0  0  0  0
 13 12  1  0  0  0  0
 14 15  1  0  0  0  0
 15 16  1  0  0  0  0
 16 40  1  0  0  0  0
 16 17  2  0  0  0  0
 17 41  1  0  0  0  0
 18 17  1  0  0  0  0
 18 19  1  0  0  0  0
 20 18  2  0  0  0  0
 21 15  2  0  0  0  0
 21 20  1  0  0  0  0
 22 14  1  0  0  0  0
 22 44  1  0  0  0  0
 22 23  1  0  0  0  0
 23 46  1  0  0  0  0
 24  2  1  0  0  0  0
 25 48  1  0  0  0  0
 25 24  2  0  0  0  0
 26 27  2  0  0  0  0
 26 25  1  0  0  0  0
 27 28  1  0  0  0  0
 28 24  1  0  0  0  0
 29  3  1  0  0  0  0
 35  9  1  0  0  0  0
 37 12  1  0  0  0  0
 39 13  1  0  0  0  0
 42 20  1  0  0  0  0
 43 21  1  0  0  0  0
 45 22  1  0  0  0  0
 47 23  1  0  0  0  0
 49 26  1  0  0  0  0
 50 27  1  0  0  0  0
M  END
>  <Pose>
1

>  <Score>
-3.86

$$$$

 OpenBabel05082222213D

 50 53  0  0  1  0  0  0  0  0999 V2000
    2.1970   54.3510  -17.1850 O   0  0  0  0  0  0  0  0  0  0  0  0
    2.6240   55.4850  -17.3830 C   0  0  0  0  0  0  0  0  0  0  0  0
    3.7890   55.9390  -16.8010 N   0  0  0  0  0  0  0  0  0  0  0  0
    4.5280   55.1320  -15.8420 C   0  0  0  0  0  0  0  0  0  0  0  0
    5.9820   55.6250  -15.5330 C   0  0  1  0  0  0  0  0  0  0  0  0
    6.1720   55.7420  -14.0330 C   0  0  0  0  0  0  0  0  0  0  0  0
    7.0040   56.4810  -13.2130 C   0  0  0  0  0  0  0  0  0  0  0  0
    6.5950   56.2260  -11.8810 C   0  0  0  0  0  0  0  0  0  0  0  0
    5.5480   55.3410  -11.9640 C   0  0  0  0  0  0  0  0  0  0  0  0
    5.3070   55.0130  -13.2580 O   0  0  0  0  0  0  0  0  0  0  0  0
    7.0260   54.7200  -16.1150 N   0  0  0  0  0  0  0  0  0  0  0  0
    6.4810   53.3630  -16.4180 C   0  0  0  0  0  0  0  0  0  0  0  0
    6.0470   52.5520  -15.1740 C   0  0  0  0  0  0  0  0  0  0  0  0
    7.2020   52.3980  -14.2730 N   0  0  0  0  0  0  0  0  0  0  0  0
    7.4420   51.2210  -13.5870 C   0  0  0  0  0  0  0  0  0  0  0  0
    6.4420   50.2410  -13.4510 C   0  0  0  0  0  0  0  0  0  0  0  0
    6.6950   49.0010  -12.8570 C   0  0  0  0  0  0  0  0  0  0  0  0
    7.9640   48.7210  -12.3790 C   0  0  0  0  0  0  0  0  0  0  0  0
    8.2200   47.5240  -11.8380 F   0  0  0  0  0  0  0  0  0  0  0  0
    8.9720   49.6670  -12.4630 C   0  0  0  0  0  0  0  0  0  0  0  0
    8.7060   50.9060  -13.0580 C   0  0  0  0  0  0  0  0  0  0  0  0
    7.8990   53.6490  -13.9280 C   0  0  0  0  0  0  0  0  0  0  0  0
    8.1770   54.4920  -15.2020 C   0  0  0  0  0  0  0  0  0  0  0  0
    1.9490   56.4570  -18.2150 C   0  0  0  0  0  0  0  0  0  0  0  0
    1.4400   57.7040  -17.9110 C   0  0  0  0  0  0  0  0  0  0  0  0
    0.9050   58.2320  -19.1080 C   0  0  0  0  0  0  0  0  0  0  0  0
    1.1140   57.2740  -20.0740 C   0  0  0  0  0  0  0  0  0  0  0  0
    1.7430   56.1920  -19.5450 O   0  0  0  0  0  0  0  0  0  0  0  0
    4.0320   56.9120  -16.9430 H   0  0  0  0  0  0  0  0  0  0  0  0
    4.5450   54.1270  -16.2740 H   0  0  0  0  0  0  0  0  0  0  0  0
    3.9280   55.0830  -14.9270 H   0  0  0  0  0  0  0  0  0  0  0  0
    6.0880   56.6310  -15.9520 H   0  0  0  0  0  0  0  0  0  0  0  0
    7.7880   57.1500  -13.5370 H   0  0  0  0  0  0  0  0  0  0  0  0
    6.9980   56.6520  -10.9730 H   0  0  0  0  0  0  0  0  0  0  0  0
    4.8970   54.8780  -11.2360 H   0  0  0  0  0  0  0  0  0  0  0  0
    7.2680   52.7960  -16.9360 H   0  0  0  0  0  0  0  0  0  0  0  0
    5.6680   53.4080  -17.1480 H   0  0  0  0  0  0  0  0  0  0  0  0
    5.6330   51.6010  -15.5180 H   0  0  0  0  0  0  0  0  0  0  0  0
    5.2320   53.0500  -14.6360 H   0  0  0  0  0  0  0  0  0  0  0  0
    5.4500   50.4000  -13.8610 H   0  0  0  0  0  0  0  0  0  0  0  0
    5.9140   48.2520  -12.7900 H   0  0  0  0  0  0  0  0  0  0  0  0
    9.9610   49.4380  -12.0800 H   0  0  0  0  0  0  0  0  0  0  0  0
    9.5160   51.6310  -13.0940 H   0  0  0  0  0  0  0  0  0  0  0  0
    8.8790   53.4400  -13.4810 H   0  0  0  0  0  0  0  0  0  0  0  0
    7.3120   54.2230  -13.2020 H   0  0  0  0  0  0  0  0  0  0  0  0
    8.9440   53.9610  -15.7860 H   0  0  0  0  0  0  0  0  0  0  0  0
    8.6660   55.4300  -14.9250 H   0  0  0  0  0  0  0  0  0  0  0  0
    1.4660   58.1650  -16.9320 H   0  0  0  0  0  0  0  0  0  0  0  0
    0.4280   59.1910  -19.2500 H   0  0  0  0  0  0  0  0  0  0  0  0
    0.8870   57.2180  -21.1290 H   0  0  0  0  0  0  0  0  0  0  0  0
  2  1  2  0  0  0  0
  2  3  1  0  0  0  0
  3  4  1  0  0  0  0
  4  5  1  0  0  0  0
  4 31  1  0  0  0  0
  5 32  1  6  0  0  0
  5  6  1  0  0  0  0
  6 10  1  0  0  0  0
  6  7  2  0  0  0  0
  7  8  1  0  0  0  0
  8 34  1  0  0  0  0
  9  8  2  0  0  0  0
  9 35  1  0  0  0  0
 10  9  1  0  0  0  0
 11  5  1  0  0  0  0
 11 23  1  0  0  0  0
 12 11  1  0  0  0  0
 12 13  1  0  0  0  0
 13 39  1  0  0  0  0
 13 14  1  0  0  0  0
 14 22  1  0  0  0  0
 14 15  1  0  0  0  0
 15 16  2  0  0  0  0
 15 21  1  0  0  0  0
 16 17  1  0  0  0  0
 17 41  1  0  0  0  0
 17 18  2  0  0  0  0
 18 19  1  0  0  0  0
 20 18  1  0  0  0  0
 20 42  1  0  0  0  0
 21 20  2  0  0  0  0
 22 44  1  0  0  0  0
 22 45  1  0  0  0  0
 23 47  1  0  0  0  0
 23 22  1  0  0  0  0
 24 25  2  0  0  0  0
 24  2  1  0  0  0  0
 25 48  1  0  0  0  0
 26 25  1  0  0  0  0
 27 28  1  0  0  0  0
 27 26  2  0  0  0  0
 28 24  1  0  0  0  0
 29  3  1  0  0  0  0
 30  4  1  0  0  0  0
 33  7  1  0  0  0  0
 36 12  1  0  0  0  0
 37 12  1  0  0  0  0
 38 13  1  0  0  0  0
 40 16  1  0  0  0  0
 43 21  1  0  0  0  0
 46 23  1  0  0  0  0
 49 26  1  0  0  0  0
 50 27  1  0  0  0  0
M  END
>  <Pose>
1

>  <Score>
-3.64

$$$$
