@<TRIPOS>MOLECULE
*****
 57 60 0 0 0
SMALL
GASTEIGER

@<TRIPOS>ATOM
      1 C           1.7718   -4.6611    0.1194 C.3     1  UNL1        0.0788
      2 O           3.1116   -4.2586    0.3701 O.3     1  UNL1       -0.4951
      3 C           3.2840   -3.0418    0.9729 C.ar    1  UNL1        0.1218
      4 C           2.2916   -2.1052    1.2286 C.ar    1  UNL1       -0.0198
      5 C           2.6246   -0.9145    1.8713 C.ar    1  UNL1       -0.0566
      6 C           3.9479   -0.6566    2.2545 C.ar    1  UNL1       -0.0404
      7 C           4.9784   -1.5690    1.9993 C.ar    1  UNL1        0.0332
      8 N           6.2866   -1.3467    2.3816 N.pl3   1  UNL1       -0.3268
      9 C           7.4093   -1.8598    1.5789 C.3     1  UNL1        0.0280
     10 C           8.3817   -2.5881    2.5155 C.3     1  UNL1        0.0304
     11 N           8.8930   -1.6491    3.5211 N.am    1  UNL1       -0.2982
     12 C          10.2262   -1.3891    3.8070 C.2     1  UNL1        0.2200
     13 O          10.5325   -0.6116    4.7140 O.2     1  UNL1       -0.2753
     14 C          11.3164   -2.1098    2.9855 C.3     1  UNL1        0.0501
     15 C          12.6550   -2.2115    3.7319 C.3     1  UNL1       -0.0395
     16 C          13.4623   -0.9154    3.7235 C.3     1  UNL1       -0.0378
     17 C          13.5707   -0.2736    2.3415 C.3     1  UNL1        0.0206
     18 N          12.2390   -0.1893    1.7019 N.3     1  UNL1       -0.1744
     19 S          12.1238    0.8459    0.3509 S.O2    1  UNL1        0.0795
     20 O          10.7609    0.7985   -0.1400 O.2     1  UNL1       -0.1513
     21 O          12.7643    2.1056    0.6727 O.2     1  UNL1       -0.1513
     22 C          13.0552    0.2582   -1.0137 C.ar    1  UNL1        0.2112
     23 C          13.1383    0.8925   -2.2388 C.ar    1  UNL1        0.0484
     24 N          13.9656    0.1143   -2.9961 N.ar    1  UNL1       -0.3492
     25 C          14.3530   -0.9482   -2.2235 C.ar    1  UNL1        0.0956
     26 N          13.8185   -0.9013   -1.0217 N.ar    1  UNL1       -0.2165
     27 C          11.5395   -1.4917    1.5987 C.3     1  UNL1        0.0316
     28 C           7.8214   -1.0036    4.3115 C.3     1  UNL1        0.0304
     29 C           6.6976   -0.3893    3.4295 C.3     1  UNL1        0.0280
     30 C           4.6029   -2.7615    1.3527 C.ar    1  UNL1        0.0011
     31 H           1.7959   -5.6882   -0.2576 H       1  UNL1        0.0660
     32 H           1.3138   -4.0320   -0.6504 H       1  UNL1        0.0660
     33 H           1.1770   -4.6598    1.0389 H       1  UNL1        0.0660
     34 H           1.2587   -2.2690    0.9435 H       1  UNL1        0.0654
     35 H           1.8514   -0.1775    2.0750 H       1  UNL1        0.0619
     36 H           4.1572    0.2950    2.7343 H       1  UNL1        0.0636
     37 H           7.9209   -1.0114    1.1057 H       1  UNL1        0.0479
     38 H           7.1113   -2.5286    0.7679 H       1  UNL1        0.0479
     39 H           9.1756   -3.0537    1.9348 H       1  UNL1        0.0480
     40 H           7.8581   -3.3866    3.0586 H       1  UNL1        0.0480
     41 H          10.9792   -3.1459    2.8644 H       1  UNL1        0.0407
     42 H          13.2561   -2.9954    3.2519 H       1  UNL1        0.0273
     43 H          12.4917   -2.5363    4.7666 H       1  UNL1        0.0273
     44 H          14.4696   -1.1200    4.1067 H       1  UNL1        0.0278
     45 H          13.0111   -0.2007    4.4205 H       1  UNL1        0.0278
     46 H          14.2613   -0.8446    1.7129 H       1  UNL1        0.0444
     47 H          13.9856    0.7313    2.4773 H       1  UNL1        0.0444
     48 H          12.6902    1.8053   -2.6080 H       1  UNL1        0.0843
     49 H          14.2468    0.2872   -3.9477 H       1  UNL1        0.1663
     50 H          15.0228   -1.7123   -2.5995 H       1  UNL1        0.1027
     51 H          12.1475   -2.1749    0.9919 H       1  UNL1        0.0451
     52 H          10.5798   -1.3662    1.0914 H       1  UNL1        0.0451
     53 H           8.2219   -0.2380    4.9834 H       1  UNL1        0.0480
     54 H           7.3858   -1.7904    4.9419 H       1  UNL1        0.0480
     55 H           7.0645    0.5274    2.9524 H       1  UNL1        0.0479
     56 H           5.8674   -0.1156    4.0902 H       1  UNL1        0.0479
     57 H           5.3394   -3.5367    1.1623 H       1  UNL1        0.0673
@<TRIPOS>BOND
     1     1     2    1
     2     2     3    1
     3     3     4   ar
     4     4     5   ar
     5     5     6   ar
     6     6     7   ar
     7     7     8    1
     8     8     9    1
     9     9    10    1
    10    10    11    1
    11    11    12   am
    12    12    13    2
    13    12    14    1
    14    14    15    1
    15    15    16    1
    16    16    17    1
    17    17    18    1
    18    18    19    1
    19    19    20    2
    20    19    21    2
    21    19    22    1
    22    22    23   ar
    23    23    24   ar
    24    24    25   ar
    25    25    26   ar
    26    22    26   ar
    27    18    27    1
    28    14    27    1
    29    11    28    1
    30    28    29    1
    31     8    29    1
    32     7    30   ar
    33     3    30   ar
    34     1    31    1
    35     1    32    1
    36     1    33    1
    37     4    34    1
    38     5    35    1
    39     6    36    1
    40     9    37    1
    41     9    38    1
    42    10    39    1
    43    10    40    1
    44    14    41    1
    45    15    42    1
    46    15    43    1
    47    16    44    1
    48    16    45    1
    49    17    46    1
    50    17    47    1
    51    23    48    1
    52    24    49    1
    53    25    50    1
    54    27    51    1
    55    27    52    1
    56    28    53    1
    57    28    54    1
    58    29    55    1
    59    29    56    1
    60    30    57    1
