
 OpenBabel05082222213D

 57 60  0  0  1  0  0  0  0  0999 V2000
    7.2750   45.7900  -11.2450 C   0  0  0  0  0  0  0  0  0  0  0  0
    7.7910   47.0530  -11.6460 O   0  0  0  0  0  0  0  0  0  0  0  0
    7.3700   47.5300  -12.8580 C   0  0  0  0  0  0  0  0  0  0  0  0
    7.2440   46.7960  -14.0300 C   0  0  0  0  0  0  0  0  0  0  0  0
    6.7810   47.4250  -15.1840 C   0  0  0  0  0  0  0  0  0  0  0  0
    6.4480   48.7860  -15.1700 C   0  0  0  0  0  0  0  0  0  0  0  0
    6.5770   49.5630  -14.0120 C   0  0  0  0  0  0  0  0  0  0  0  0
    6.2390   50.9010  -13.9680 N   0  0  0  0  0  0  0  0  0  0  0  0
    6.5060   51.7900  -15.1110 C   0  0  0  0  0  0  0  0  0  0  0  0
    7.2140   53.0480  -14.5920 C   0  0  0  0  0  0  0  0  0  0  0  0
    6.3460   53.7400  -13.6310 N   0  0  0  0  0  0  0  0  0  0  0  0
    5.9570   55.0710  -13.6790 C   0  0  0  0  0  0  0  0  0  0  0  0
    5.2620   55.5540  -12.7810 O   0  0  0  0  0  0  0  0  0  0  0  0
    6.4300   55.9420  -14.8630 C   0  0  2  0  0  0  0  0  0  0  0  0
    6.2240   57.4440  -14.6170 C   0  0  0  0  0  0  0  0  0  0  0  0
    4.7820   57.9060  -14.8140 C   0  0  0  0  0  0  0  0  0  0  0  0
    4.1500   57.3970  -16.1090 C   0  0  0  0  0  0  0  0  0  0  0  0
    4.3710   55.9410  -16.2580 N   0  0  0  0  0  0  0  0  0  0  0  0
    3.4040   55.1550  -17.4230 S   0  0  0  0  0  0  0  0  0  0  0  0
    4.2530   54.7870  -18.5390 O   0  0  0  0  0  0  0  0  0  0  0  0
    2.5730   54.1750  -16.7550 O   0  0  0  0  0  0  0  0  0  0  0  0
    2.2380   56.2400  -18.1560 C   0  0  0  0  0  0  0  0  0  0  0  0
    1.4620   57.1460  -17.4570 C   0  0  0  0  0  0  0  0  0  0  0  0
    0.7140   57.7880  -18.4010 N   0  0  0  0  0  0  0  0  0  0  0  0
    1.0510   57.2640  -19.6210 C   0  0  0  0  0  0  0  0  0  0  0  0
    1.9630   56.3210  -19.5140 N   0  0  0  0  0  0  0  0  0  0  0  0
    5.7970   55.5420  -16.2020 C   0  0  0  0  0  0  0  0  0  0  0  0
    5.9410   52.8850  -12.4930 C   0  0  0  0  0  0  0  0  0  0  0  0
    5.3710   51.5080  -12.9370 C   0  0  0  0  0  0  0  0  0  0  0  0
    7.0430   48.8920  -12.8660 C   0  0  0  0  0  0  0  0  0  0  0  0
    7.6120   45.6010  -10.2210 H   0  0  0  0  0  0  0  0  0  0  0  0
    7.6670   44.9900  -11.8800 H   0  0  0  0  0  0  0  0  0  0  0  0
    6.1800   45.7910  -11.2390 H   0  0  0  0  0  0  0  0  0  0  0  0
    7.4960   45.7430  -14.0790 H   0  0  0  0  0  0  0  0  0  0  0  0
    6.6800   46.8550  -16.1050 H   0  0  0  0  0  0  0  0  0  0  0  0
    6.1110   49.2320  -16.1010 H   0  0  0  0  0  0  0  0  0  0  0  0
    5.5490   52.0700  -15.5710 H   0  0  0  0  0  0  0  0  0  0  0  0
    7.1050   51.3330  -15.9030 H   0  0  0  0  0  0  0  0  0  0  0  0
    7.5020   53.6820  -15.4280 H   0  0  0  0  0  0  0  0  0  0  0  0
    8.1320   52.7720  -14.0550 H   0  0  0  0  0  0  0  0  0  0  0  0
    7.5170   55.8110  -14.9290 H   0  0  0  0  0  0  0  0  0  0  0  0
    6.8620   57.9970  -15.3200 H   0  0  0  0  0  0  0  0  0  0  0  0
    6.5630   57.7170  -13.6100 H   0  0  0  0  0  0  0  0  0  0  0  0
    4.7540   59.0020  -14.8060 H   0  0  0  0  0  0  0  0  0  0  0  0
    4.1750   57.5790  -13.9630 H   0  0  0  0  0  0  0  0  0  0  0  0
    4.5630   57.9360  -16.9680 H   0  0  0  0  0  0  0  0  0  0  0  0
    3.0770   57.6110  -16.0570 H   0  0  0  0  0  0  0  0  0  0  0  0
    1.3960   57.3730  -16.4010 H   0  0  0  0  0  0  0  0  0  0  0  0
    0.0390   58.5180  -18.2370 H   0  0  0  0  0  0  0  0  0  0  0  0
    0.5940   57.6160  -20.5380 H   0  0  0  0  0  0  0  0  0  0  0  0
    6.3370   56.0360  -17.0190 H   0  0  0  0  0  0  0  0  0  0  0  0
    5.8930   54.4630  -16.3480 H   0  0  0  0  0  0  0  0  0  0  0  0
    5.2180   53.3910  -11.8470 H   0  0  0  0  0  0  0  0  0  0  0  0
    6.8460   52.7170  -11.8950 H   0  0  0  0  0  0  0  0  0  0  0  0
    4.3650   51.6420  -13.3510 H   0  0  0  0  0  0  0  0  0  0  0  0
    5.2860   50.8790  -12.0440 H   0  0  0  0  0  0  0  0  0  0  0  0
    7.1250   49.4180  -11.9190 H   0  0  0  0  0  0  0  0  0  0  0  0
  1 33  1  0  0  0  0
  1 31  1  0  0  0  0
  2  1  1  0  0  0  0
  3  2  1  0  0  0  0
  4  3  2  0  0  0  0
  5  6  2  0  0  0  0
  5  4  1  0  0  0  0
  6  7  1  0  0  0  0
  7  8  1  0  0  0  0
  7 30  2  0  0  0  0
  8 29  1  0  0  0  0
  9 10  1  0  0  0  0
  9  8  1  0  0  0  0
 10 40  1  0  0  0  0
 10 11  1  0  0  0  0
 11 28  1  0  0  0  0
 12 11  1  0  0  0  0
 12 13  2  0  0  0  0
 14 41  1  6  0  0  0
 14 15  1  0  0  0  0
 14 12  1  0  0  0  0
 15 43  1  0  0  0  0
 16 44  1  0  0  0  0
 16 15  1  0  0  0  0
 16 45  1  0  0  0  0
 17 47  1  0  0  0  0
 17 16  1  0  0  0  0
 18 27  1  0  0  0  0
 18 17  1  0  0  0  0
 19 21  2  0  0  0  0
 19 18  1  0  0  0  0
 20 19  2  0  0  0  0
 22 23  2  0  0  0  0
 22 19  1  0  0  0  0
 23 48  1  0  0  0  0
 24 49  1  0  0  0  0
 24 23  1  0  0  0  0
 25 26  2  0  0  0  0
 25 24  1  0  0  0  0
 26 22  1  0  0  0  0
 27 14  1  0  0  0  0
 28 54  1  0  0  0  0
 28 53  1  0  0  0  0
 29 28  1  0  0  0  0
 29 56  1  0  0  0  0
 30  3  1  0  0  0  0
 30 57  1  0  0  0  0
 32  1  1  0  0  0  0
 34  4  1  0  0  0  0
 35  5  1  0  0  0  0
 36  6  1  0  0  0  0
 37  9  1  0  0  0  0
 38  9  1  0  0  0  0
 39 10  1  0  0  0  0
 42 15  1  0  0  0  0
 46 17  1  0  0  0  0
 50 25  1  0  0  0  0
 51 27  1  0  0  0  0
 52 27  1  0  0  0  0
 55 29  1  0  0  0  0
M  END
>  <Pose>
1

>  <Score>
-5.94

$$$$

 OpenBabel05082222213D

 57 60  0  0  1  0  0  0  0  0999 V2000
    5.6280   46.3520  -17.5990 C   0  0  0  0  0  0  0  0  0  0  0  0
    6.9430   46.6100  -17.1250 O   0  0  0  0  0  0  0  0  0  0  0  0
    7.0560   47.0220  -15.8240 C   0  0  0  0  0  0  0  0  0  0  0  0
    7.5240   46.2620  -14.7610 C   0  0  0  0  0  0  0  0  0  0  0  0
    7.5980   46.8340  -13.4920 C   0  0  0  0  0  0  0  0  0  0  0  0
    7.2010   48.1620  -13.2840 C   0  0  0  0  0  0  0  0  0  0  0  0
    6.7090   48.9540  -14.3280 C   0  0  0  0  0  0  0  0  0  0  0  0
    6.3270   50.2700  -14.1520 N   0  0  0  0  0  0  0  0  0  0  0  0
    6.6970   51.3040  -15.1330 C   0  0  0  0  0  0  0  0  0  0  0  0
    7.3010   52.4950  -14.3780 C   0  0  0  0  0  0  0  0  0  0  0  0
    6.3070   53.0420  -13.4460 N   0  0  0  0  0  0  0  0  0  0  0  0
    5.8850   54.3620  -13.3690 C   0  0  0  0  0  0  0  0  0  0  0  0
    5.0770   54.7120  -12.5060 O   0  0  0  0  0  0  0  0  0  0  0  0
    6.4650   55.3860  -14.3680 C   0  0  2  0  0  0  0  0  0  0  0  0
    6.3510   56.8350  -13.8690 C   0  0  0  0  0  0  0  0  0  0  0  0
    4.9530   57.4290  -14.0230 C   0  0  0  0  0  0  0  0  0  0  0  0
    4.3420   57.2000  -15.4040 C   0  0  0  0  0  0  0  0  0  0  0  0
    4.4690   55.7800  -15.7990 N   0  0  0  0  0  0  0  0  0  0  0  0
    3.5000   55.2810  -17.1120 S   0  0  0  0  0  0  0  0  0  0  0  0
    4.3590   55.1000  -18.2650 O   0  0  0  0  0  0  0  0  0  0  0  0
    2.6120   54.2280  -16.6620 O   0  0  0  0  0  0  0  0  0  0  0  0
    2.3970   56.5400  -17.6360 C   0  0  0  0  0  0  0  0  0  0  0  0
    2.3850   57.8290  -17.1380 C   0  0  0  0  0  0  0  0  0  0  0  0
    1.3930   58.4730  -17.8210 N   0  0  0  0  0  0  0  0  0  0  0  0
    0.8450   57.5740  -18.6960 C   0  0  0  0  0  0  0  0  0  0  0  0
    1.4190   56.3930  -18.6090 N   0  0  0  0  0  0  0  0  0  0  0  0
    5.8610   55.2720  -15.7740 C   0  0  0  0  0  0  0  0  0  0  0  0
    5.8000   52.0400  -12.4830 C   0  0  0  0  0  0  0  0  0  0  0  0
    5.3280   50.7230  -13.1630 C   0  0  0  0  0  0  0  0  0  0  0  0
    6.6530   48.3440  -15.5950 C   0  0  0  0  0  0  0  0  0  0  0  0
    5.7120   45.9300  -18.6050 H   0  0  0  0  0  0  0  0  0  0  0  0
    5.0510   47.2790  -17.6710 H   0  0  0  0  0  0  0  0  0  0  0  0
    5.1170   45.6140  -16.9720 H   0  0  0  0  0  0  0  0  0  0  0  0
    7.8360   45.2310  -14.8840 H   0  0  0  0  0  0  0  0  0  0  0  0
    7.9650   46.2430  -12.6560 H   0  0  0  0  0  0  0  0  0  0  0  0
    7.2600   48.5520  -12.2720 H   0  0  0  0  0  0  0  0  0  0  0  0
    5.7910   51.6260  -15.6630 H   0  0  0  0  0  0  0  0  0  0  0  0
    7.3960   50.9640  -15.9010 H   0  0  0  0  0  0  0  0  0  0  0  0
    7.6640   53.2360  -15.0870 H   0  0  0  0  0  0  0  0  0  0  0  0
    8.1590   52.1650  -13.7760 H   0  0  0  0  0  0  0  0  0  0  0  0
    7.5410   55.1890  -14.4250 H   0  0  0  0  0  0  0  0  0  0  0  0
    7.0540   57.4520  -14.4450 H   0  0  0  0  0  0  0  0  0  0  0  0
    6.6670   56.9030  -12.8210 H   0  0  0  0  0  0  0  0  0  0  0  0
    5.0000   58.5070  -13.8230 H   0  0  0  0  0  0  0  0  0  0  0  0
    4.2910   57.0060  -13.2590 H   0  0  0  0  0  0  0  0  0  0  0  0
    4.8250   57.8470  -16.1430 H   0  0  0  0  0  0  0  0  0  0  0  0
    3.2850   57.4810  -15.3460 H   0  0  0  0  0  0  0  0  0  0  0  0
    2.9880   58.3150  -16.3820 H   0  0  0  0  0  0  0  0  0  0  0  0
    1.1150   59.4350  -17.7100 H   0  0  0  0  0  0  0  0  0  0  0  0
    0.0360   57.8480  -19.3630 H   0  0  0  0  0  0  0  0  0  0  0  0
    6.4660   55.8590  -16.4770 H   0  0  0  0  0  0  0  0  0  0  0  0
    5.8890   54.2310  -16.1050 H   0  0  0  0  0  0  0  0  0  0  0  0
    4.9920   52.4460  -11.8670 H   0  0  0  0  0  0  0  0  0  0  0  0
    6.6360   51.8090  -11.8080 H   0  0  0  0  0  0  0  0  0  0  0  0
    4.3720   50.8950  -13.6720 H   0  0  0  0  0  0  0  0  0  0  0  0
    5.1600   49.9820  -12.3730 H   0  0  0  0  0  0  0  0  0  0  0  0
    6.3250   48.9100  -16.4620 H   0  0  0  0  0  0  0  0  0  0  0  0
  1  2  1  0  0  0  0
  1 33  1  0  0  0  0
  2  3  1  0  0  0  0
  3 30  2  0  0  0  0
  3  4  1  0  0  0  0
  4  5  2  0  0  0  0
  5  6  1  0  0  0  0
  5 35  1  0  0  0  0
  6 36  1  0  0  0  0
  7  8  1  0  0  0  0
  7  6  2  0  0  0  0
  8 29  1  0  0  0  0
  9 10  1  0  0  0  0
  9  8  1  0  0  0  0
 10 40  1  0  0  0  0
 10 11  1  0  0  0  0
 11 12  1  0  0  0  0
 11 28  1  0  0  0  0
 12 13  2  0  0  0  0
 14 41  1  6  0  0  0
 14 15  1  0  0  0  0
 14 12  1  0  0  0  0
 15 43  1  0  0  0  0
 16 15  1  0  0  0  0
 16 44  1  0  0  0  0
 16 45  1  0  0  0  0
 17 47  1  0  0  0  0
 17 16  1  0  0  0  0
 18 27  1  0  0  0  0
 18 17  1  0  0  0  0
 19 21  2  0  0  0  0
 19 18  1  0  0  0  0
 20 19  2  0  0  0  0
 22 23  2  0  0  0  0
 22 19  1  0  0  0  0
 23 48  1  0  0  0  0
 24 49  1  0  0  0  0
 24 23  1  0  0  0  0
 25 26  2  0  0  0  0
 25 24  1  0  0  0  0
 26 22  1  0  0  0  0
 27 14  1  0  0  0  0
 28 53  1  0  0  0  0
 28 54  1  0  0  0  0
 29 28  1  0  0  0  0
 29 56  1  0  0  0  0
 30  7  1  0  0  0  0
 31  1  1  0  0  0  0
 32  1  1  0  0  0  0
 34  4  1  0  0  0  0
 37  9  1  0  0  0  0
 38  9  1  0  0  0  0
 39 10  1  0  0  0  0
 42 15  1  0  0  0  0
 46 17  1  0  0  0  0
 50 25  1  0  0  0  0
 51 27  1  0  0  0  0
 52 27  1  0  0  0  0
 55 29  1  0  0  0  0
 57 30  1  0  0  0  0
M  END
>  <Pose>
2

>  <Score>
-5.70

$$$$

 OpenBabel05082222213D

 57 60  0  0  1  0  0  0  0  0999 V2000
   -3.1410   59.1880  -23.9450 C   0  0  0  0  0  0  0  0  0  0  0  0
   -2.1730   58.3570  -23.3190 O   0  0  0  0  0  0  0  0  0  0  0  0
   -1.3830   58.9440  -22.3680 C   0  0  0  0  0  0  0  0  0  0  0  0
   -1.3590   60.2930  -22.0400 C   0  0  0  0  0  0  0  0  0  0  0  0
   -0.5080   60.7360  -21.0300 C   0  0  0  0  0  0  0  0  0  0  0  0
    0.3210   59.8340  -20.3490 C   0  0  0  0  0  0  0  0  0  0  0  0
    0.3370   58.4700  -20.6620 C   0  0  0  0  0  0  0  0  0  0  0  0
    1.1320   57.5580  -19.9950 N   0  0  0  0  0  0  0  0  0  0  0  0
    1.0440   57.4010  -18.5340 C   0  0  0  0  0  0  0  0  0  0  0  0
    2.4640   57.4510  -17.9550 C   0  0  0  0  0  0  0  0  0  0  0  0
    3.2630   56.3540  -18.5140 N   0  0  0  0  0  0  0  0  0  0  0  0
    3.9730   55.4000  -17.7980 C   0  0  0  0  0  0  0  0  0  0  0  0
    4.6510   54.5530  -18.3840 O   0  0  0  0  0  0  0  0  0  0  0  0
    3.9170   55.4350  -16.2560 C   0  0  2  0  0  0  0  0  0  0  0  0
    4.5370   56.7110  -15.6660 C   0  0  0  0  0  0  0  0  0  0  0  0
    6.0640   56.6960  -15.6410 C   0  0  0  0  0  0  0  0  0  0  0  0
    6.6520   55.4040  -15.0780 C   0  0  0  0  0  0  0  0  0  0  0  0
    6.0220   54.2260  -15.7140 N   0  0  0  0  0  0  0  0  0  0  0  0
    6.8290   52.7390  -15.4970 S   0  0  0  0  0  0  0  0  0  0  0  0
    6.9080   52.0750  -16.7830 O   0  0  0  0  0  0  0  0  0  0  0  0
    8.0140   52.9650  -14.6920 O   0  0  0  0  0  0  0  0  0  0  0  0
    5.8950   51.6140  -14.5290 C   0  0  0  0  0  0  0  0  0  0  0  0
    4.9420   51.9830  -13.5980 C   0  0  0  0  0  0  0  0  0  0  0  0
    4.4550   50.8120  -13.0920 N   0  0  0  0  0  0  0  0  0  0  0  0
    5.1130   49.7870  -13.7190 C   0  0  0  0  0  0  0  0  0  0  0  0
    5.9960   50.2310  -14.5890 N   0  0  0  0  0  0  0  0  0  0  0  0
    4.5450   54.1990  -15.5980 C   0  0  0  0  0  0  0  0  0  0  0  0
    3.3210   56.3730  -19.9930 C   0  0  0  0  0  0  0  0  0  0  0  0
    1.9210   56.4990  -20.6580 C   0  0  0  0  0  0  0  0  0  0  0  0
   -0.5380   58.0590  -21.6850 C   0  0  0  0  0  0  0  0  0  0  0  0
   -3.7590   58.5550  -24.5900 H   0  0  0  0  0  0  0  0  0  0  0  0
   -2.6580   59.9400  -24.5770 H   0  0  0  0  0  0  0  0  0  0  0  0
   -3.8020   59.6540  -23.2070 H   0  0  0  0  0  0  0  0  0  0  0  0
   -1.9830   61.0190  -22.5480 H   0  0  0  0  0  0  0  0  0  0  0  0
   -0.4850   61.7910  -20.7680 H   0  0  0  0  0  0  0  0  0  0  0  0
    0.9800   60.2340  -19.5830 H   0  0  0  0  0  0  0  0  0  0  0  0
    0.5910   56.4260  -18.3110 H   0  0  0  0  0  0  0  0  0  0  0  0
    0.4200   58.1490  -18.0390 H   0  0  0  0  0  0  0  0  0  0  0  0
    2.4210   57.4260  -16.8680 H   0  0  0  0  0  0  0  0  0  0  0  0
    2.9580   58.3880  -18.2440 H   0  0  0  0  0  0  0  0  0  0  0  0
    2.8560   55.4840  -15.9850 H   0  0  0  0  0  0  0  0  0  0  0  0
    4.1760   56.8220  -14.6350 H   0  0  0  0  0  0  0  0  0  0  0  0
    4.1870   57.5940  -16.2140 H   0  0  0  0  0  0  0  0  0  0  0  0
    6.4190   57.5450  -15.0440 H   0  0  0  0  0  0  0  0  0  0  0  0
    6.4460   56.8560  -16.6550 H   0  0  0  0  0  0  0  0  0  0  0  0
    6.5180   55.3700  -13.9920 H   0  0  0  0  0  0  0  0  0  0  0  0
    7.7270   55.4130  -15.2880 H   0  0  0  0  0  0  0  0  0  0  0  0
    4.5890   52.9530  -13.2760 H   0  0  0  0  0  0  0  0  0  0  0  0
    3.7400   50.7140  -12.3900 H   0  0  0  0  0  0  0  0  0  0  0  0
    4.8980   48.7500  -13.4940 H   0  0  0  0  0  0  0  0  0  0  0  0
    4.2720   54.1780  -14.5350 H   0  0  0  0  0  0  0  0  0  0  0  0
    4.1450   53.2920  -16.0580 H   0  0  0  0  0  0  0  0  0  0  0  0
    3.8380   55.4920  -20.3860 H   0  0  0  0  0  0  0  0  0  0  0  0
    3.9230   57.2500  -20.2670 H   0  0  0  0  0  0  0  0  0  0  0  0
    1.3860   55.5460  -20.5700 H   0  0  0  0  0  0  0  0  0  0  0  0
    2.0750   56.7020  -21.7230 H   0  0  0  0  0  0  0  0  0  0  0  0
   -0.6150   57.0090  -21.9510 H   0  0  0  0  0  0  0  0  0  0  0  0
  1  2  1  0  0  0  0
  1 33  1  0  0  0  0
  2  3  1  0  0  0  0
  3  4  2  0  0  0  0
  3 30  1  0  0  0  0
  4  5  1  0  0  0  0
  5 35  1  0  0  0  0
  5  6  2  0  0  0  0
  6 36  1  0  0  0  0
  7  6  1  0  0  0  0
  7  8  1  0  0  0  0
  8  9  1  0  0  0  0
  9 37  1  0  0  0  0
  9 38  1  0  0  0  0
  9 10  1  0  0  0  0
 10 39  1  0  0  0  0
 11 10  1  0  0  0  0
 11 12  1  0  0  0  0
 12 14  1  0  0  0  0
 13 12  2  0  0  0  0
 14 41  1  1  0  0  0
 14 15  1  0  0  0  0
 14 27  1  0  0  0  0
 15 16  1  0  0  0  0
 15 42  1  0  0  0  0
 16 17  1  0  0  0  0
 16 44  1  0  0  0  0
 17 46  1  0  0  0  0
 18 27  1  0  0  0  0
 18 19  1  0  0  0  0
 18 17  1  0  0  0  0
 19 21  2  0  0  0  0
 19 22  1  0  0  0  0
 20 19  2  0  0  0  0
 22 23  2  0  0  0  0
 23 48  1  0  0  0  0
 23 24  1  0  0  0  0
 24 49  1  0  0  0  0
 25 50  1  0  0  0  0
 25 24  1  0  0  0  0
 26 22  1  0  0  0  0
 26 25  2  0  0  0  0
 27 51  1  0  0  0  0
 28 11  1  0  0  0  0
 29 55  1  0  0  0  0
 29  8  1  0  0  0  0
 29 28  1  0  0  0  0
 30  7  2  0  0  0  0
 31  1  1  0  0  0  0
 32  1  1  0  0  0  0
 34  4  1  0  0  0  0
 40 10  1  0  0  0  0
 43 15  1  0  0  0  0
 45 16  1  0  0  0  0
 47 17  1  0  0  0  0
 52 27  1  0  0  0  0
 53 28  1  0  0  0  0
 54 28  1  0  0  0  0
 56 29  1  0  0  0  0
 57 30  1  0  0  0  0
M  END
>  <Pose>
4

>  <Score>
-5.55

$$$$

 OpenBabel05082222213D

 57 60  0  0  1  0  0  0  0  0999 V2000
   -1.2020   56.9260  -24.5220 C   0  0  0  0  0  0  0  0  0  0  0  0
   -0.9730   56.4100  -23.2170 O   0  0  0  0  0  0  0  0  0  0  0  0
   -0.5080   57.2940  -22.2810 C   0  0  0  0  0  0  0  0  0  0  0  0
   -0.9740   58.5850  -22.0700 C   0  0  0  0  0  0  0  0  0  0  0  0
   -0.4080   59.3590  -21.0590 C   0  0  0  0  0  0  0  0  0  0  0  0
    0.6250   58.8460  -20.2620 C   0  0  0  0  0  0  0  0  0  0  0  0
    1.1320   57.5560  -20.4550 C   0  0  0  0  0  0  0  0  0  0  0  0
    2.1370   57.0220  -19.6730 N   0  0  0  0  0  0  0  0  0  0  0  0
    1.8460   56.4630  -18.3420 C   0  0  0  0  0  0  0  0  0  0  0  0
    2.8430   57.0580  -17.3390 C   0  0  0  0  0  0  0  0  0  0  0  0
    4.2100   56.6960  -17.7300 N   0  0  0  0  0  0  0  0  0  0  0  0
    5.1600   56.0720  -16.9330 C   0  0  0  0  0  0  0  0  0  0  0  0
    6.2980   55.8630  -17.3600 O   0  0  0  0  0  0  0  0  0  0  0  0
    4.7730   55.6670  -15.4940 C   0  0  2  0  0  0  0  0  0  0  0  0
    5.4000   56.5790  -14.4290 C   0  0  0  0  0  0  0  0  0  0  0  0
    6.8700   56.2760  -14.1510 C   0  0  0  0  0  0  0  0  0  0  0  0
    7.1580   54.7910  -13.9420 C   0  0  0  0  0  0  0  0  0  0  0  0
    6.5440   53.9850  -15.0200 N   0  0  0  0  0  0  0  0  0  0  0  0
    7.0960   52.3770  -15.1590 S   0  0  0  0  0  0  0  0  0  0  0  0
    6.8260   51.9210  -16.5080 O   0  0  0  0  0  0  0  0  0  0  0  0
    8.4240   52.2900  -14.5870 O   0  0  0  0  0  0  0  0  0  0  0  0
    6.1600   51.2700  -14.1730 C   0  0  0  0  0  0  0  0  0  0  0  0
    4.8630   51.4970  -13.7530 C   0  0  0  0  0  0  0  0  0  0  0  0
    4.5150   50.3920  -13.0310 N   0  0  0  0  0  0  0  0  0  0  0  0
    5.5890   49.5420  -13.0350 C   0  0  0  0  0  0  0  0  0  0  0  0
    6.6050   50.0400  -13.7080 N   0  0  0  0  0  0  0  0  0  0  0  0
    5.0850   54.1990  -15.1720 C   0  0  0  0  0  0  0  0  0  0  0  0
    4.5570   57.1300  -19.1010 C   0  0  0  0  0  0  0  0  0  0  0  0
    3.4970   56.7130  -20.1600 C   0  0  0  0  0  0  0  0  0  0  0  0
    0.5330   56.8030  -21.4820 C   0  0  0  0  0  0  0  0  0  0  0  0
   -1.6700   56.1350  -25.1170 H   0  0  0  0  0  0  0  0  0  0  0  0
   -0.2570   57.1940  -25.0060 H   0  0  0  0  0  0  0  0  0  0  0  0
   -1.8920   57.7760  -24.4980 H   0  0  0  0  0  0  0  0  0  0  0  0
   -1.7690   59.0150  -22.6690 H   0  0  0  0  0  0  0  0  0  0  0  0
   -0.7700   60.3700  -20.8880 H   0  0  0  0  0  0  0  0  0  0  0  0
    1.0440   59.4980  -19.5000 H   0  0  0  0  0  0  0  0  0  0  0  0
    1.9720   55.3730  -18.3820 H   0  0  0  0  0  0  0  0  0  0  0  0
    0.8260   56.6410  -17.9940 H   0  0  0  0  0  0  0  0  0  0  0  0
    2.5940   56.7300  -16.3310 H   0  0  0  0  0  0  0  0  0  0  0  0
    2.7850   58.1550  -17.3520 H   0  0  0  0  0  0  0  0  0  0  0  0
    3.6920   55.8290  -15.4070 H   0  0  0  0  0  0  0  0  0  0  0  0
    4.8380   56.4500  -13.4940 H   0  0  0  0  0  0  0  0  0  0  0  0
    5.2890   57.6320  -14.7150 H   0  0  0  0  0  0  0  0  0  0  0  0
    7.1870   56.8340  -13.2610 H   0  0  0  0  0  0  0  0  0  0  0  0
    7.4820   56.6510  -14.9790 H   0  0  0  0  0  0  0  0  0  0  0  0
    6.7860   54.4680  -12.9640 H   0  0  0  0  0  0  0  0  0  0  0  0
    8.2460   54.6620  -13.9520 H   0  0  0  0  0  0  0  0  0  0  0  0
    4.1900   52.3290  -13.9130 H   0  0  0  0  0  0  0  0  0  0  0  0
    3.6300   50.2240  -12.5810 H   0  0  0  0  0  0  0  0  0  0  0  0
    5.5600   48.5840  -12.5300 H   0  0  0  0  0  0  0  0  0  0  0  0
    4.5850   53.9210  -14.2350 H   0  0  0  0  0  0  0  0  0  0  0  0
    4.6880   53.5550  -15.9610 H   0  0  0  0  0  0  0  0  0  0  0  0
    5.5430   56.7620  -19.4030 H   0  0  0  0  0  0  0  0  0  0  0  0
    4.6160   58.2260  -19.0720 H   0  0  0  0  0  0  0  0  0  0  0  0
    3.5730   55.6360  -20.3520 H   0  0  0  0  0  0  0  0  0  0  0  0
    3.7330   57.2380  -21.0920 H   0  0  0  0  0  0  0  0  0  0  0  0
    0.8420   55.7780  -21.6620 H   0  0  0  0  0  0  0  0  0  0  0  0
  1 33  1  0  0  0  0
  1  2  1  0  0  0  0
  2  3  1  0  0  0  0
  3  4  2  0  0  0  0
  3 30  1  0  0  0  0
  4  5  1  0  0  0  0
  5 35  1  0  0  0  0
  5  6  2  0  0  0  0
  6 36  1  0  0  0  0
  7  6  1  0  0  0  0
  7  8  1  0  0  0  0
  8  9  1  0  0  0  0
  9 38  1  0  0  0  0
  9 10  1  0  0  0  0
 10 39  1  0  0  0  0
 11 10  1  0  0  0  0
 11 12  1  0  0  0  0
 12 14  1  0  0  0  0
 13 12  2  0  0  0  0
 14 41  1  1  0  0  0
 14 27  1  0  0  0  0
 14 15  1  0  0  0  0
 15 16  1  0  0  0  0
 15 42  1  0  0  0  0
 16 17  1  0  0  0  0
 16 44  1  0  0  0  0
 17 46  1  0  0  0  0
 18 17  1  0  0  0  0
 19 18  1  0  0  0  0
 19 21  2  0  0  0  0
 19 22  1  0  0  0  0
 20 19  2  0  0  0  0
 22 23  2  0  0  0  0
 22 26  1  0  0  0  0
 23 24  1  0  0  0  0
 24 49  1  0  0  0  0
 25 24  1  0  0  0  0
 25 50  1  0  0  0  0
 26 25  2  0  0  0  0
 27 18  1  0  0  0  0
 27 51  1  0  0  0  0
 28 54  1  0  0  0  0
 28 11  1  0  0  0  0
 29  8  1  0  0  0  0
 29 28  1  0  0  0  0
 30  7  2  0  0  0  0
 31  1  1  0  0  0  0
 32  1  1  0  0  0  0
 34  4  1  0  0  0  0
 37  9  1  0  0  0  0
 40 10  1  0  0  0  0
 43 15  1  0  0  0  0
 45 16  1  0  0  0  0
 47 17  1  0  0  0  0
 48 23  1  0  0  0  0
 52 27  1  0  0  0  0
 53 28  1  0  0  0  0
 55 29  1  0  0  0  0
 56 29  1  0  0  0  0
 57 30  1  0  0  0  0
M  END
>  <Pose>
1

>  <Score>
-5.47

$$$$

 OpenBabel05082222213D

 57 60  0  0  1  0  0  0  0  0999 V2000
   10.2060   47.3590  -10.8470 C   0  0  0  0  0  0  0  0  0  0  0  0
    9.2640   48.3990  -11.0740 O   0  0  0  0  0  0  0  0  0  0  0  0
    8.5300   48.3210  -12.2270 C   0  0  0  0  0  0  0  0  0  0  0  0
    8.2950   47.1740  -12.9730 C   0  0  0  0  0  0  0  0  0  0  0  0
    7.5070   47.2540  -14.1200 C   0  0  0  0  0  0  0  0  0  0  0  0
    6.9580   48.4790  -14.5240 C   0  0  0  0  0  0  0  0  0  0  0  0
    7.1860   49.6590  -13.8060 C   0  0  0  0  0  0  0  0  0  0  0  0
    6.6430   50.8750  -14.1730 N   0  0  0  0  0  0  0  0  0  0  0  0
    6.8600   51.4270  -15.5210 C   0  0  0  0  0  0  0  0  0  0  0  0
    7.3210   52.8840  -15.3790 C   0  0  0  0  0  0  0  0  0  0  0  0
    6.2820   53.6640  -14.6960 N   0  0  0  0  0  0  0  0  0  0  0  0
    5.6960   54.8380  -15.1500 C   0  0  0  0  0  0  0  0  0  0  0  0
    4.8650   55.4320  -14.4590 O   0  0  0  0  0  0  0  0  0  0  0  0
    6.1230   55.3970  -16.5250 C   0  0  2  0  0  0  0  0  0  0  0  0
    6.6690   56.8300  -16.4410 C   0  0  0  0  0  0  0  0  0  0  0  0
    5.5820   57.8940  -16.3110 C   0  0  0  0  0  0  0  0  0  0  0  0
    4.4390   57.7240  -17.3110 C   0  0  0  0  0  0  0  0  0  0  0  0
    3.9540   56.3260  -17.3120 N   0  0  0  0  0  0  0  0  0  0  0  0
    2.4450   56.0600  -18.0610 S   0  0  0  0  0  0  0  0  0  0  0  0
    2.6440   56.0790  -19.4970 O   0  0  0  0  0  0  0  0  0  0  0  0
    1.7890   54.9450  -17.4070 O   0  0  0  0  0  0  0  0  0  0  0  0
    1.3330   57.3900  -17.8000 C   0  0  0  0  0  0  0  0  0  0  0  0
    0.1480   57.5700  -18.4880 C   0  0  0  0  0  0  0  0  0  0  0  0
   -0.4060   58.7050  -17.9700 N   0  0  0  0  0  0  0  0  0  0  0  0
    0.4420   59.1710  -17.0000 C   0  0  0  0  0  0  0  0  0  0  0  0
    1.5080   58.4090  -16.8730 N   0  0  0  0  0  0  0  0  0  0  0  0
    5.0120   55.3240  -17.5810 C   0  0  0  0  0  0  0  0  0  0  0  0
    5.9240   53.1180  -13.3680 C   0  0  0  0  0  0  0  0  0  0  0  0
    5.6120   51.5950  -13.3980 C   0  0  0  0  0  0  0  0  0  0  0  0
    7.9830   49.5380  -12.6520 C   0  0  0  0  0  0  0  0  0  0  0  0
   10.6260   47.5010   -9.8460 H   0  0  0  0  0  0  0  0  0  0  0  0
   11.0290   47.4150  -11.5670 H   0  0  0  0  0  0  0  0  0  0  0  0
    9.7260   46.3750  -10.8680 H   0  0  0  0  0  0  0  0  0  0  0  0
    8.7060   46.2110  -12.6930 H   0  0  0  0  0  0  0  0  0  0  0  0
    7.3190   46.3590  -14.7080 H   0  0  0  0  0  0  0  0  0  0  0  0
    6.3680   48.4900  -15.4350 H   0  0  0  0  0  0  0  0  0  0  0  0
    5.9120   51.3940  -16.0720 H   0  0  0  0  0  0  0  0  0  0  0  0
    7.5840   50.8710  -16.1220 H   0  0  0  0  0  0  0  0  0  0  0  0
    7.5740   53.2890  -16.3570 H   0  0  0  0  0  0  0  0  0  0  0  0
    8.2240   52.9370  -14.7560 H   0  0  0  0  0  0  0  0  0  0  0  0
    6.9720   54.7880  -16.8570 H   0  0  0  0  0  0  0  0  0  0  0  0
    7.2420   57.0320  -17.3560 H   0  0  0  0  0  0  0  0  0  0  0  0
    7.3750   56.9220  -15.6070 H   0  0  0  0  0  0  0  0  0  0  0  0
    6.0340   58.8840  -16.4450 H   0  0  0  0  0  0  0  0  0  0  0  0
    5.1780   57.8800  -15.2930 H   0  0  0  0  0  0  0  0  0  0  0  0
    4.7680   58.0150  -18.3130 H   0  0  0  0  0  0  0  0  0  0  0  0
    3.6330   58.4000  -17.0070 H   0  0  0  0  0  0  0  0  0  0  0  0
   -0.3220   56.9930  -19.2740 H   0  0  0  0  0  0  0  0  0  0  0  0
   -1.2800   59.1240  -18.2420 H   0  0  0  0  0  0  0  0  0  0  0  0
    0.2200   60.0660  -16.4310 H   0  0  0  0  0  0  0  0  0  0  0  0
    5.4420   55.5180  -18.5720 H   0  0  0  0  0  0  0  0  0  0  0  0
    4.5840   54.3180  -17.5990 H   0  0  0  0  0  0  0  0  0  0  0  0
    5.0810   53.6580  -12.9240 H   0  0  0  0  0  0  0  0  0  0  0  0
    6.7940   53.2880  -12.7190 H   0  0  0  0  0  0  0  0  0  0  0  0
    4.6330   51.4290  -13.8640 H   0  0  0  0  0  0  0  0  0  0  0  0
    5.5530   51.2460  -12.3610 H   0  0  0  0  0  0  0  0  0  0  0  0
    8.1660   50.4020  -12.0200 H   0  0  0  0  0  0  0  0  0  0  0  0
  1 31  1  0  0  0  0
  2  1  1  0  0  0  0
  3  2  1  0  0  0  0
  4 34  1  0  0  0  0
  4  3  2  0  0  0  0
  5  4  1  0  0  0  0
  6  5  2  0  0  0  0
  6  7  1  0  0  0  0
  7 30  2  0  0  0  0
  8  7  1  0  0  0  0
  8 29  1  0  0  0  0
  9 10  1  0  0  0  0
  9  8  1  0  0  0  0
 10 40  1  0  0  0  0
 10 11  1  0  0  0  0
 11 28  1  0  0  0  0
 12 11  1  0  0  0  0
 12 13  2  0  0  0  0
 14 41  1  6  0  0  0
 14 15  1  0  0  0  0
 14 12  1  0  0  0  0
 15 16  1  0  0  0  0
 15 43  1  0  0  0  0
 16 45  1  0  0  0  0
 17 47  1  0  0  0  0
 17 16  1  0  0  0  0
 18 17  1  0  0  0  0
 19 22  1  0  0  0  0
 19 21  2  0  0  0  0
 19 18  1  0  0  0  0
 20 19  2  0  0  0  0
 22 26  1  0  0  0  0
 23 24  1  0  0  0  0
 23 22  2  0  0  0  0
 24 25  1  0  0  0  0
 25 26  2  0  0  0  0
 25 50  1  0  0  0  0
 27 18  1  0  0  0  0
 27 14  1  0  0  0  0
 28 53  1  0  0  0  0
 28 54  1  0  0  0  0
 29 28  1  0  0  0  0
 29 56  1  0  0  0  0
 30  3  1  0  0  0  0
 30 57  1  0  0  0  0
 32  1  1  0  0  0  0
 33  1  1  0  0  0  0
 35  5  1  0  0  0  0
 36  6  1  0  0  0  0
 37  9  1  0  0  0  0
 38  9  1  0  0  0  0
 39 10  1  0  0  0  0
 42 15  1  0  0  0  0
 44 16  1  0  0  0  0
 46 17  1  0  0  0  0
 48 23  1  0  0  0  0
 49 24  1  0  0  0  0
 51 27  1  0  0  0  0
 52 27  1  0  0  0  0
 55 29  1  0  0  0  0
M  END
>  <Pose>
1

>  <Score>
-5.35

$$$$

 OpenBabel05082222213D

 57 60  0  0  1  0  0  0  0  0999 V2000
    8.6310   47.0720  -11.7850 C   0  0  0  0  0  0  0  0  0  0  0  0
    8.7790   48.4520  -12.0920 O   0  0  0  0  0  0  0  0  0  0  0  0
    8.1300   48.9050  -13.2090 C   0  0  0  0  0  0  0  0  0  0  0  0
    7.9010   48.1840  -14.3730 C   0  0  0  0  0  0  0  0  0  0  0  0
    7.2040   48.7820  -15.4210 C   0  0  0  0  0  0  0  0  0  0  0  0
    6.7410   50.1000  -15.3090 C   0  0  0  0  0  0  0  0  0  0  0  0
    6.9670   50.8640  -14.1580 C   0  0  0  0  0  0  0  0  0  0  0  0
    6.5060   52.1580  -14.0160 N   0  0  0  0  0  0  0  0  0  0  0  0
    6.4920   53.0880  -15.1580 C   0  0  0  0  0  0  0  0  0  0  0  0
    7.1430   54.4060  -14.7180 C   0  0  0  0  0  0  0  0  0  0  0  0
    6.3760   54.9870  -13.6090 N   0  0  0  0  0  0  0  0  0  0  0  0
    5.8500   56.2700  -13.5500 C   0  0  0  0  0  0  0  0  0  0  0  0
    5.2650   56.6620  -12.5380 O   0  0  0  0  0  0  0  0  0  0  0  0
    6.0340   57.2040  -14.7650 C   0  0  2  0  0  0  0  0  0  0  0  0
    5.3640   58.5730  -14.5710 C   0  0  0  0  0  0  0  0  0  0  0  0
    3.8520   58.5510  -14.7780 C   0  0  0  0  0  0  0  0  0  0  0  0
    3.4210   57.8260  -16.0520 C   0  0  0  0  0  0  0  0  0  0  0  0
    4.0890   56.5090  -16.1510 N   0  0  0  0  0  0  0  0  0  0  0  0
    3.4270   55.4200  -17.2850 S   0  0  0  0  0  0  0  0  0  0  0  0
    4.4900   54.9860  -18.1690 O   0  0  0  0  0  0  0  0  0  0  0  0
    2.5960   54.4630  -16.5810 O   0  0  0  0  0  0  0  0  0  0  0  0
    2.3010   56.2040  -18.3760 C   0  0  0  0  0  0  0  0  0  0  0  0
    1.2510   57.0100  -17.9750 C   0  0  0  0  0  0  0  0  0  0  0  0
    0.6460   57.4190  -19.1280 N   0  0  0  0  0  0  0  0  0  0  0  0
    1.3330   56.8620  -20.1740 C   0  0  0  0  0  0  0  0  0  0  0  0
    2.3350   56.1160  -19.7610 N   0  0  0  0  0  0  0  0  0  0  0  0
    5.5680   56.5800  -16.0870 C   0  0  0  0  0  0  0  0  0  0  0  0
    6.2500   54.0760  -12.4490 C   0  0  0  0  0  0  0  0  0  0  0  0
    5.7590   52.6530  -12.8410 C   0  0  0  0  0  0  0  0  0  0  0  0
    7.6690   50.2250  -13.1200 C   0  0  0  0  0  0  0  0  0  0  0  0
    9.1090   46.8910  -10.8170 H   0  0  0  0  0  0  0  0  0  0  0  0
    9.1380   46.4510  -12.5300 H   0  0  0  0  0  0  0  0  0  0  0  0
    7.5760   46.7960  -11.6900 H   0  0  0  0  0  0  0  0  0  0  0  0
    8.2470   47.1640  -14.4960 H   0  0  0  0  0  0  0  0  0  0  0  0
    7.0210   48.2220  -16.3350 H   0  0  0  0  0  0  0  0  0  0  0  0
    6.2210   50.5260  -16.1630 H   0  0  0  0  0  0  0  0  0  0  0  0
    5.4500   53.2720  -15.4500 H   0  0  0  0  0  0  0  0  0  0  0  0
    6.9980   52.7100  -16.0500 H   0  0  0  0  0  0  0  0  0  0  0  0
    7.2250   55.0790  -15.5680 H   0  0  0  0  0  0  0  0  0  0  0  0
    8.1580   54.2200  -14.3430 H   0  0  0  0  0  0  0  0  0  0  0  0
    7.1070   57.4190  -14.8310 H   0  0  0  0  0  0  0  0  0  0  0  0
    5.8020   59.2740  -15.2950 H   0  0  0  0  0  0  0  0  0  0  0  0
    5.5940   58.9720  -13.5760 H   0  0  0  0  0  0  0  0  0  0  0  0
    3.4810   59.5830  -14.8070 H   0  0  0  0  0  0  0  0  0  0  0  0
    3.3730   58.0790  -13.9130 H   0  0  0  0  0  0  0  0  0  0  0  0
    3.6500   58.4370  -16.9300 H   0  0  0  0  0  0  0  0  0  0  0  0
    2.3350   57.6930  -16.0030 H   0  0  0  0  0  0  0  0  0  0  0  0
    0.9090   57.3100  -16.9940 H   0  0  0  0  0  0  0  0  0  0  0  0
   -0.1560   58.0240  -19.2030 H   0  0  0  0  0  0  0  0  0  0  0  0
    1.0490   57.0440  -21.2040 H   0  0  0  0  0  0  0  0  0  0  0  0
    5.9310   57.1900  -16.9240 H   0  0  0  0  0  0  0  0  0  0  0  0
    5.9990   55.5820  -16.1970 H   0  0  0  0  0  0  0  0  0  0  0  0
    5.5930   54.4920  -11.6790 H   0  0  0  0  0  0  0  0  0  0  0  0
    7.2530   53.9950  -12.0090 H   0  0  0  0  0  0  0  0  0  0  0  0
    4.6910   52.6870  -13.0850 H   0  0  0  0  0  0  0  0  0  0  0  0
    5.8850   52.0050  -11.9670 H   0  0  0  0  0  0  0  0  0  0  0  0
    7.8430   50.7380  -12.1790 H   0  0  0  0  0  0  0  0  0  0  0  0
  1 33  1  0  0  0  0
  1 31  1  0  0  0  0
  2  1  1  0  0  0  0
  3 30  1  0  0  0  0
  3  2  1  0  0  0  0
  4  3  2  0  0  0  0
  5  6  2  0  0  0  0
  5  4  1  0  0  0  0
  6  7  1  0  0  0  0
  7  8  1  0  0  0  0
  7 30  2  0  0  0  0
  8 29  1  0  0  0  0
  9 10  1  0  0  0  0
  9  8  1  0  0  0  0
 10 40  1  0  0  0  0
 10 11  1  0  0  0  0
 11 12  1  0  0  0  0
 11 28  1  0  0  0  0
 12 13  2  0  0  0  0
 14 41  1  6  0  0  0
 14 15  1  0  0  0  0
 14 12  1  0  0  0  0
 15 43  1  0  0  0  0
 16 15  1  0  0  0  0
 16 45  1  0  0  0  0
 17 47  1  0  0  0  0
 17 16  1  0  0  0  0
 18 27  1  0  0  0  0
 18 17  1  0  0  0  0
 19 21  2  0  0  0  0
 19 18  1  0  0  0  0
 20 19  2  0  0  0  0
 22 23  2  0  0  0  0
 22 19  1  0  0  0  0
 23 48  1  0  0  0  0
 24 23  1  0  0  0  0
 25 26  2  0  0  0  0
 25 24  1  0  0  0  0
 26 22  1  0  0  0  0
 27 14  1  0  0  0  0
 28 54  1  0  0  0  0
 28 53  1  0  0  0  0
 29 28  1  0  0  0  0
 29 56  1  0  0  0  0
 30 57  1  0  0  0  0
 32  1  1  0  0  0  0
 34  4  1  0  0  0  0
 35  5  1  0  0  0  0
 36  6  1  0  0  0  0
 37  9  1  0  0  0  0
 38  9  1  0  0  0  0
 39 10  1  0  0  0  0
 42 15  1  0  0  0  0
 44 16  1  0  0  0  0
 46 17  1  0  0  0  0
 49 24  1  0  0  0  0
 50 25  1  0  0  0  0
 51 27  1  0  0  0  0
 52 27  1  0  0  0  0
 55 29  1  0  0  0  0
M  END
>  <Pose>
1

>  <Score>
-5.26

$$$$

 OpenBabel05082222213D

 57 60  0  0  1  0  0  0  0  0999 V2000
    9.2700   46.0630  -12.3110 C   0  0  0  0  0  0  0  0  0  0  0  0
    8.0050   45.7430  -12.8740 O   0  0  0  0  0  0  0  0  0  0  0  0
    7.6370   46.4400  -13.9930 C   0  0  0  0  0  0  0  0  0  0  0  0
    7.6060   45.9490  -15.2920 C   0  0  0  0  0  0  0  0  0  0  0  0
    7.1880   46.7830  -16.3270 C   0  0  0  0  0  0  0  0  0  0  0  0
    6.8050   48.1060  -16.0680 C   0  0  0  0  0  0  0  0  0  0  0  0
    6.8390   48.6410  -14.7750 C   0  0  0  0  0  0  0  0  0  0  0  0
    6.4510   49.9360  -14.4900 N   0  0  0  0  0  0  0  0  0  0  0  0
    6.9050   51.0640  -15.3200 C   0  0  0  0  0  0  0  0  0  0  0  0
    7.4510   52.1580  -14.3940 C   0  0  0  0  0  0  0  0  0  0  0  0
    6.3870   52.6160  -13.4930 N   0  0  0  0  0  0  0  0  0  0  0  0
    5.9670   53.9260  -13.3080 C   0  0  0  0  0  0  0  0  0  0  0  0
    5.0930   54.1930  -12.4810 O   0  0  0  0  0  0  0  0  0  0  0  0
    6.6320   55.0430  -14.1400 C   0  0  2  0  0  0  0  0  0  0  0  0
    6.4320   56.4390  -13.5310 C   0  0  0  0  0  0  0  0  0  0  0  0
    5.0470   57.0280  -13.7900 C   0  0  0  0  0  0  0  0  0  0  0  0
    4.6000   56.9180  -15.2460 C   0  0  0  0  0  0  0  0  0  0  0  0
    4.8010   55.5410  -15.7490 N   0  0  0  0  0  0  0  0  0  0  0  0
    3.9970   55.1510  -17.2020 S   0  0  0  0  0  0  0  0  0  0  0  0
    4.9690   55.1710  -18.2760 O   0  0  0  0  0  0  0  0  0  0  0  0
    3.1530   53.9950  -16.9720 O   0  0  0  0  0  0  0  0  0  0  0  0
    2.8560   56.3940  -17.6790 C   0  0  0  0  0  0  0  0  0  0  0  0
    3.1670   57.7330  -17.8200 C   0  0  0  0  0  0  0  0  0  0  0  0
    2.0070   58.3370  -18.2130 N   0  0  0  0  0  0  0  0  0  0  0  0
    1.0460   57.3650  -18.2990 C   0  0  0  0  0  0  0  0  0  0  0  0
    1.5170   56.1790  -17.9770 N   0  0  0  0  0  0  0  0  0  0  0  0
    6.1920   55.0490  -15.6100 C   0  0  0  0  0  0  0  0  0  0  0  0
    5.7980   51.5230  -12.6880 C   0  0  0  0  0  0  0  0  0  0  0  0
    5.3760   50.2940  -13.5420 C   0  0  0  0  0  0  0  0  0  0  0  0
    7.2620   47.7680  -13.7550 C   0  0  0  0  0  0  0  0  0  0  0  0
    9.4650   45.3530  -11.5010 H   0  0  0  0  0  0  0  0  0  0  0  0
    9.2610   47.0690  -11.8800 H   0  0  0  0  0  0  0  0  0  0  0  0
   10.0720   45.9530  -13.0480 H   0  0  0  0  0  0  0  0  0  0  0  0
    7.8980   44.9330  -15.5300 H   0  0  0  0  0  0  0  0  0  0  0  0
    7.1600   46.4040  -17.3460 H   0  0  0  0  0  0  0  0  0  0  0  0
    6.5060   48.7190  -16.9130 H   0  0  0  0  0  0  0  0  0  0  0  0
    6.0480   51.4540  -15.8840 H   0  0  0  0  0  0  0  0  0  0  0  0
    7.6640   50.7980  -16.0610 H   0  0  0  0  0  0  0  0  0  0  0  0
    7.8750   52.9660  -14.9870 H   0  0  0  0  0  0  0  0  0  0  0  0
    8.2550   51.7540  -13.7640 H   0  0  0  0  0  0  0  0  0  0  0  0
    7.7130   54.8650  -14.0920 H   0  0  0  0  0  0  0  0  0  0  0  0
    7.1810   57.1140  -13.9670 H   0  0  0  0  0  0  0  0  0  0  0  0
    6.6260   56.4160  -12.4520 H   0  0  0  0  0  0  0  0  0  0  0  0
    5.0470   58.0840  -13.4910 H   0  0  0  0  0  0  0  0  0  0  0  0
    4.3130   56.5300  -13.1470 H   0  0  0  0  0  0  0  0  0  0  0  0
    5.1490   57.6350  -15.8650 H   0  0  0  0  0  0  0  0  0  0  0  0
    3.5360   57.1790  -15.2840 H   0  0  0  0  0  0  0  0  0  0  0  0
    4.0920   58.2750  -17.6780 H   0  0  0  0  0  0  0  0  0  0  0  0
    1.8780   59.3160  -18.4110 H   0  0  0  0  0  0  0  0  0  0  0  0
    0.0300   57.5930  -18.6010 H   0  0  0  0  0  0  0  0  0  0  0  0
    6.8600   55.7040  -16.1850 H   0  0  0  0  0  0  0  0  0  0  0  0
    6.2810   54.0430  -16.0260 H   0  0  0  0  0  0  0  0  0  0  0  0
    4.9440   51.8730  -12.0990 H   0  0  0  0  0  0  0  0  0  0  0  0
    6.5730   51.2100  -11.9760 H   0  0  0  0  0  0  0  0  0  0  0  0
    4.4660   50.5330  -14.1060 H   0  0  0  0  0  0  0  0  0  0  0  0
    5.1400   49.4750  -12.8530 H   0  0  0  0  0  0  0  0  0  0  0  0
    7.2710   48.0980  -12.7200 H   0  0  0  0  0  0  0  0  0  0  0  0
  1 32  1  0  0  0  0
  1 31  1  0  0  0  0
  2  1  1  0  0  0  0
  3 30  1  0  0  0  0
  3  2  1  0  0  0  0
  4  3  2  0  0  0  0
  5  6  2  0  0  0  0
  5  4  1  0  0  0  0
  6  7  1  0  0  0  0
  7  8  1  0  0  0  0
  7 30  2  0  0  0  0
  8 29  1  0  0  0  0
  9  8  1  0  0  0  0
  9 10  1  0  0  0  0
 10 40  1  0  0  0  0
 10 11  1  0  0  0  0
 11 12  1  0  0  0  0
 11 28  1  0  0  0  0
 12 13  2  0  0  0  0
 14 41  1  1  0  0  0
 14 15  1  0  0  0  0
 14 12  1  0  0  0  0
 15 43  1  0  0  0  0
 16 15  1  0  0  0  0
 16 44  1  0  0  0  0
 16 45  1  0  0  0  0
 17 16  1  0  0  0  0
 18 27  1  0  0  0  0
 18 17  1  0  0  0  0
 19 21  2  0  0  0  0
 19 18  1  0  0  0  0
 20 19  2  0  0  0  0
 22 19  1  0  0  0  0
 23 22  2  0  0  0  0
 23 48  1  0  0  0  0
 24 23  1  0  0  0  0
 25 24  1  0  0  0  0
 25 26  2  0  0  0  0
 26 22  1  0  0  0  0
 27 14  1  0  0  0  0
 28 53  1  0  0  0  0
 28 54  1  0  0  0  0
 29 56  1  0  0  0  0
 29 28  1  0  0  0  0
 30 57  1  0  0  0  0
 33  1  1  0  0  0  0
 34  4  1  0  0  0  0
 35  5  1  0  0  0  0
 36  6  1  0  0  0  0
 37  9  1  0  0  0  0
 38  9  1  0  0  0  0
 39 10  1  0  0  0  0
 42 15  1  0  0  0  0
 46 17  1  0  0  0  0
 47 17  1  0  0  0  0
 49 24  1  0  0  0  0
 50 25  1  0  0  0  0
 51 27  1  0  0  0  0
 52 27  1  0  0  0  0
 55 29  1  0  0  0  0
M  END
>  <Pose>
1

>  <Score>
-5.24

$$$$

 OpenBabel05082222213D

 57 60  0  0  1  0  0  0  0  0999 V2000
    0.9270   55.3710  -25.1390 C   0  0  0  0  0  0  0  0  0  0  0  0
    1.8000   56.1870  -24.3690 O   0  0  0  0  0  0  0  0  0  0  0  0
    1.3510   56.5690  -23.1340 C   0  0  0  0  0  0  0  0  0  0  0  0
    0.0770   57.0290  -22.8310 C   0  0  0  0  0  0  0  0  0  0  0  0
   -0.2340   57.3630  -21.5140 C   0  0  0  0  0  0  0  0  0  0  0  0
    0.7280   57.2420  -20.5010 C   0  0  0  0  0  0  0  0  0  0  0  0
    2.0270   56.7980  -20.7710 C   0  0  0  0  0  0  0  0  0  0  0  0
    2.9880   56.6540  -19.7900 N   0  0  0  0  0  0  0  0  0  0  0  0
    2.6790   55.9780  -18.5190 C   0  0  0  0  0  0  0  0  0  0  0  0
    3.1630   56.8670  -17.3660 C   0  0  0  0  0  0  0  0  0  0  0  0
    4.6140   57.0630  -17.4710 N   0  0  0  0  0  0  0  0  0  0  0  0
    5.5550   56.8140  -16.4820 C   0  0  0  0  0  0  0  0  0  0  0  0
    6.7470   57.0670  -16.6740 O   0  0  0  0  0  0  0  0  0  0  0  0
    5.0790   56.2390  -15.1310 C   0  0  2  0  0  0  0  0  0  0  0  0
    5.7720   56.8950  -13.9270 C   0  0  0  0  0  0  0  0  0  0  0  0
    7.1890   56.3830  -13.6810 C   0  0  0  0  0  0  0  0  0  0  0  0
    7.3000   54.8600  -13.7050 C   0  0  0  0  0  0  0  0  0  0  0  0
    6.6320   54.3090  -14.9050 N   0  0  0  0  0  0  0  0  0  0  0  0
    7.0020   52.6880  -15.2880 S   0  0  0  0  0  0  0  0  0  0  0  0
    6.5490   52.4290  -16.6400 O   0  0  0  0  0  0  0  0  0  0  0  0
    8.3670   52.4140  -14.8850 O   0  0  0  0  0  0  0  0  0  0  0  0
    6.0650   51.5530  -14.3340 C   0  0  0  0  0  0  0  0  0  0  0  0
    4.8440   51.8370  -13.7520 C   0  0  0  0  0  0  0  0  0  0  0  0
    4.4650   50.6860  -13.1240 N   0  0  0  0  0  0  0  0  0  0  0  0
    5.4470   49.7560  -13.3380 C   0  0  0  0  0  0  0  0  0  0  0  0
    6.4340   50.2440  -14.0590 N   0  0  0  0  0  0  0  0  0  0  0  0
    5.2120   54.7130  -15.0400 C   0  0  0  0  0  0  0  0  0  0  0  0
    5.0290   57.6470  -18.7660 C   0  0  0  0  0  0  0  0  0  0  0  0
    4.4310   56.9010  -19.9920 C   0  0  0  0  0  0  0  0  0  0  0  0
    2.3020   56.4670  -22.1110 C   0  0  0  0  0  0  0  0  0  0  0  0
    1.4660   55.0610  -26.0400 H   0  0  0  0  0  0  0  0  0  0  0  0
    0.0440   55.9350  -25.4550 H   0  0  0  0  0  0  0  0  0  0  0  0
    0.6450   54.4640  -24.5940 H   0  0  0  0  0  0  0  0  0  0  0  0
   -0.6910   57.1390  -23.5880 H   0  0  0  0  0  0  0  0  0  0  0  0
   -1.2310   57.7230  -21.2700 H   0  0  0  0  0  0  0  0  0  0  0  0
    0.4400   57.5350  -19.4960 H   0  0  0  0  0  0  0  0  0  0  0  0
    3.2110   55.0180  -18.4910 H   0  0  0  0  0  0  0  0  0  0  0  0
    1.6200   55.7440  -18.3820 H   0  0  0  0  0  0  0  0  0  0  0  0
    2.8670   56.4320  -16.4140 H   0  0  0  0  0  0  0  0  0  0  0  0
    2.6990   57.8600  -17.4340 H   0  0  0  0  0  0  0  0  0  0  0  0
    4.0220   56.5120  -15.0340 H   0  0  0  0  0  0  0  0  0  0  0  0
    5.1700   56.6900  -13.0320 H   0  0  0  0  0  0  0  0  0  0  0  0
    5.7900   57.9860  -14.0450 H   0  0  0  0  0  0  0  0  0  0  0  0
    7.5390   56.7550  -12.7100 H   0  0  0  0  0  0  0  0  0  0  0  0
    7.8650   56.8070  -14.4310 H   0  0  0  0  0  0  0  0  0  0  0  0
    6.8630   54.4350  -12.7960 H   0  0  0  0  0  0  0  0  0  0  0  0
    8.3660   54.6080  -13.7200 H   0  0  0  0  0  0  0  0  0  0  0  0
    4.2420   52.7360  -13.7450 H   0  0  0  0  0  0  0  0  0  0  0  0
    3.6170   50.5410  -12.6000 H   0  0  0  0  0  0  0  0  0  0  0  0
    5.3760   48.7500  -12.9430 H   0  0  0  0  0  0  0  0  0  0  0  0
    4.6550   54.3530  -14.1660 H   0  0  0  0  0  0  0  0  0  0  0  0
    4.7700   54.2500  -15.9260 H   0  0  0  0  0  0  0  0  0  0  0  0
    6.1190   57.6900  -18.8570 H   0  0  0  0  0  0  0  0  0  0  0  0
    4.6630   58.6820  -18.7690 H   0  0  0  0  0  0  0  0  0  0  0  0
    4.9430   55.9400  -20.1240 H   0  0  0  0  0  0  0  0  0  0  0  0
    4.6260   57.5100  -20.8820 H   0  0  0  0  0  0  0  0  0  0  0  0
    3.2750   56.0710  -22.3890 H   0  0  0  0  0  0  0  0  0  0  0  0
  1 33  1  0  0  0  0
  1  2  1  0  0  0  0
  2  3  1  0  0  0  0
  3  4  2  0  0  0  0
  3 30  1  0  0  0  0
  4  5  1  0  0  0  0
  5 35  1  0  0  0  0
  5  6  2  0  0  0  0
  6 36  1  0  0  0  0
  7  6  1  0  0  0  0
  7  8  1  0  0  0  0
  8  9  1  0  0  0  0
  9 37  1  0  0  0  0
  9 38  1  0  0  0  0
  9 10  1  0  0  0  0
 10 39  1  0  0  0  0
 11 10  1  0  0  0  0
 11 12  1  0  0  0  0
 12 14  1  0  0  0  0
 13 12  2  0  0  0  0
 14 27  1  0  0  0  0
 14 41  1  1  0  0  0
 14 15  1  0  0  0  0
 15 16  1  0  0  0  0
 15 42  1  0  0  0  0
 16 44  1  0  0  0  0
 17 16  1  0  0  0  0
 17 46  1  0  0  0  0
 18 17  1  0  0  0  0
 19 18  1  0  0  0  0
 19 21  2  0  0  0  0
 19 22  1  0  0  0  0
 20 19  2  0  0  0  0
 22 26  1  0  0  0  0
 22 23  2  0  0  0  0
 23 48  1  0  0  0  0
 23 24  1  0  0  0  0
 24 49  1  0  0  0  0
 25 24  1  0  0  0  0
 25 50  1  0  0  0  0
 26 25  2  0  0  0  0
 27 18  1  0  0  0  0
 27 51  1  0  0  0  0
 28 11  1  0  0  0  0
 29  8  1  0  0  0  0
 29 28  1  0  0  0  0
 30  7  2  0  0  0  0
 31  1  1  0  0  0  0
 32  1  1  0  0  0  0
 34  4  1  0  0  0  0
 40 10  1  0  0  0  0
 43 15  1  0  0  0  0
 45 16  1  0  0  0  0
 47 17  1  0  0  0  0
 52 27  1  0  0  0  0
 53 28  1  0  0  0  0
 54 28  1  0  0  0  0
 55 29  1  0  0  0  0
 56 29  1  0  0  0  0
 57 30  1  0  0  0  0
M  END
>  <Pose>
1

>  <Score>
-5.16

$$$$

 OpenBabel05082222213D

 57 60  0  0  1  0  0  0  0  0999 V2000
    6.2470   45.7630  -16.5920 C   0  0  0  0  0  0  0  0  0  0  0  0
    7.4300   46.3150  -16.0300 O   0  0  0  0  0  0  0  0  0  0  0  0
    7.2710   47.1170  -14.9320 C   0  0  0  0  0  0  0  0  0  0  0  0
    7.5010   46.7550  -13.6110 C   0  0  0  0  0  0  0  0  0  0  0  0
    7.3110   47.6960  -12.6020 C   0  0  0  0  0  0  0  0  0  0  0  0
    6.8870   48.9960  -12.9090 C   0  0  0  0  0  0  0  0  0  0  0  0
    6.6280   49.3940  -14.2260 C   0  0  0  0  0  0  0  0  0  0  0  0
    6.2260   50.6730  -14.5570 N   0  0  0  0  0  0  0  0  0  0  0  0
    6.2490   51.1370  -15.9540 C   0  0  0  0  0  0  0  0  0  0  0  0
    6.9590   52.4960  -16.0010 C   0  0  0  0  0  0  0  0  0  0  0  0
    6.2240   53.4650  -15.1790 N   0  0  0  0  0  0  0  0  0  0  0  0
    5.7560   54.7070  -15.5850 C   0  0  0  0  0  0  0  0  0  0  0  0
    5.1930   55.4570  -14.7840 O   0  0  0  0  0  0  0  0  0  0  0  0
    5.9760   55.1410  -17.0500 C   0  0  2  0  0  0  0  0  0  0  0  0
    6.7880   56.4400  -17.1710 C   0  0  0  0  0  0  0  0  0  0  0  0
    5.9750   57.7010  -16.8870 C   0  0  0  0  0  0  0  0  0  0  0  0
    4.6340   57.7390  -17.6170 C   0  0  0  0  0  0  0  0  0  0  0  0
    3.9050   56.4650  -17.4310 N   0  0  0  0  0  0  0  0  0  0  0  0
    2.2480   56.4870  -17.8360 S   0  0  0  0  0  0  0  0  0  0  0  0
    1.7140   55.1550  -17.6300 O   0  0  0  0  0  0  0  0  0  0  0  0
    1.6330   57.6470  -17.2220 O   0  0  0  0  0  0  0  0  0  0  0  0
    1.9900   56.7550  -19.5490 C   0  0  0  0  0  0  0  0  0  0  0  0
    2.9360   57.2710  -20.4140 C   0  0  0  0  0  0  0  0  0  0  0  0
    2.3330   57.2990  -21.6390 N   0  0  0  0  0  0  0  0  0  0  0  0
    1.0640   56.8080  -21.4840 C   0  0  0  0  0  0  0  0  0  0  0  0
    0.8160   56.4750  -20.2350 N   0  0  0  0  0  0  0  0  0  0  0  0
    4.6720   55.2670  -17.8480 C   0  0  0  0  0  0  0  0  0  0  0  0
    6.0620   53.0300  -13.7740 C   0  0  0  0  0  0  0  0  0  0  0  0
    5.5070   51.5830  -13.6420 C   0  0  0  0  0  0  0  0  0  0  0  0
    6.8360   48.4170  -15.2190 C   0  0  0  0  0  0  0  0  0  0  0  0
    6.5460   45.0660  -17.3820 H   0  0  0  0  0  0  0  0  0  0  0  0
    5.6320   46.5450  -17.0500 H   0  0  0  0  0  0  0  0  0  0  0  0
    5.6790   45.1960  -15.8480 H   0  0  0  0  0  0  0  0  0  0  0  0
    7.8260   45.7580  -13.3360 H   0  0  0  0  0  0  0  0  0  0  0  0
    7.4900   47.4190  -11.5660 H   0  0  0  0  0  0  0  0  0  0  0  0
    6.7340   49.6850  -12.0830 H   0  0  0  0  0  0  0  0  0  0  0  0
    5.2150   51.2510  -16.3050 H   0  0  0  0  0  0  0  0  0  0  0  0
    6.7340   50.4470  -16.6480 H   0  0  0  0  0  0  0  0  0  0  0  0
    7.0690   52.8210  -17.0340 H   0  0  0  0  0  0  0  0  0  0  0  0
    7.9680   52.4120  -15.5730 H   0  0  0  0  0  0  0  0  0  0  0  0
    6.6040   54.3700  -17.5110 H   0  0  0  0  0  0  0  0  0  0  0  0
    7.1800   56.5050  -18.1950 H   0  0  0  0  0  0  0  0  0  0  0  0
    7.6610   56.4070  -16.5070 H   0  0  0  0  0  0  0  0  0  0  0  0
    6.5670   58.5790  -17.1730 H   0  0  0  0  0  0  0  0  0  0  0  0
    5.8030   57.7880  -15.8080 H   0  0  0  0  0  0  0  0  0  0  0  0
    4.7890   57.9380  -18.6820 H   0  0  0  0  0  0  0  0  0  0  0  0
    4.0540   58.5680  -17.1970 H   0  0  0  0  0  0  0  0  0  0  0  0
    3.9530   57.6030  -20.2530 H   0  0  0  0  0  0  0  0  0  0  0  0
    2.7430   57.6170  -22.5020 H   0  0  0  0  0  0  0  0  0  0  0  0
    0.3800   56.7210  -22.3200 H   0  0  0  0  0  0  0  0  0  0  0  0
    4.9080   55.3520  -18.9170 H   0  0  0  0  0  0  0  0  0  0  0  0
    4.0680   54.3660  -17.7150 H   0  0  0  0  0  0  0  0  0  0  0  0
    5.4280   53.7200  -13.2090 H   0  0  0  0  0  0  0  0  0  0  0  0
    7.0620   53.0680  -13.3220 H   0  0  0  0  0  0  0  0  0  0  0  0
    4.4400   51.5750  -13.8950 H   0  0  0  0  0  0  0  0  0  0  0  0
    5.6070   51.2820  -12.5940 H   0  0  0  0  0  0  0  0  0  0  0  0
    6.7000   48.6650  -16.2670 H   0  0  0  0  0  0  0  0  0  0  0  0
  1  2  1  0  0  0  0
  1 33  1  0  0  0  0
  2  3  1  0  0  0  0
  3  4  1  0  0  0  0
  4 34  1  0  0  0  0
  4  5  2  0  0  0  0
  5 35  1  0  0  0  0
  6  5  1  0  0  0  0
  6 36  1  0  0  0  0
  7  6  2  0  0  0  0
  8  7  1  0  0  0  0
  8 29  1  0  0  0  0
  9  8  1  0  0  0  0
 10  9  1  0  0  0  0
 10 40  1  0  0  0  0
 10 11  1  0  0  0  0
 11 28  1  0  0  0  0
 12 11  1  0  0  0  0
 12 13  2  0  0  0  0
 14 41  1  6  0  0  0
 14 12  1  0  0  0  0
 15 14  1  0  0  0  0
 15 16  1  0  0  0  0
 15 43  1  0  0  0  0
 16 45  1  0  0  0  0
 17 18  1  0  0  0  0
 17 47  1  0  0  0  0
 17 16  1  0  0  0  0
 19 20  2  0  0  0  0
 19 18  1  0  0  0  0
 19 21  2  0  0  0  0
 22 19  1  0  0  0  0
 23 48  1  0  0  0  0
 23 22  2  0  0  0  0
 24 25  1  0  0  0  0
 24 23  1  0  0  0  0
 25 26  2  0  0  0  0
 26 22  1  0  0  0  0
 27 52  1  0  0  0  0
 27 18  1  0  0  0  0
 27 14  1  0  0  0  0
 28 29  1  0  0  0  0
 28 54  1  0  0  0  0
 28 53  1  0  0  0  0
 29 56  1  0  0  0  0
 30  3  2  0  0  0  0
 30  7  1  0  0  0  0
 31  1  1  0  0  0  0
 32  1  1  0  0  0  0
 37  9  1  0  0  0  0
 38  9  1  0  0  0  0
 39 10  1  0  0  0  0
 42 15  1  0  0  0  0
 44 16  1  0  0  0  0
 46 17  1  0  0  0  0
 49 24  1  0  0  0  0
 50 25  1  0  0  0  0
 51 27  1  0  0  0  0
 55 29  1  0  0  0  0
 57 30  1  0  0  0  0
M  END
>  <Pose>
1

>  <Score>
-5.10

$$$$

 OpenBabel05082222213D

 57 60  0  0  1  0  0  0  0  0999 V2000
    1.9550   62.7230  -16.1600 C   0  0  0  0  0  0  0  0  0  0  0  0
    2.3000   61.4730  -15.5790 O   0  0  0  0  0  0  0  0  0  0  0  0
    1.7970   60.3540  -16.1880 C   0  0  0  0  0  0  0  0  0  0  0  0
    0.5200   60.2100  -16.7120 C   0  0  0  0  0  0  0  0  0  0  0  0
    0.1620   59.0090  -17.3210 C   0  0  0  0  0  0  0  0  0  0  0  0
    1.0780   57.9510  -17.4030 C   0  0  0  0  0  0  0  0  0  0  0  0
    2.3690   58.0520  -16.8720 C   0  0  0  0  0  0  0  0  0  0  0  0
    3.2950   57.0310  -16.9550 N   0  0  0  0  0  0  0  0  0  0  0  0
    4.2790   56.8100  -15.8820 C   0  0  0  0  0  0  0  0  0  0  0  0
    5.6690   56.6850  -16.5170 C   0  0  0  0  0  0  0  0  0  0  0  0
    5.6890   55.5420  -17.4370 N   0  0  0  0  0  0  0  0  0  0  0  0
    6.5890   54.4850  -17.4230 C   0  0  0  0  0  0  0  0  0  0  0  0
    6.5340   53.6040  -18.2840 O   0  0  0  0  0  0  0  0  0  0  0  0
    7.6740   54.4480  -16.3250 C   0  0  2  0  0  0  0  0  0  0  0  0
    9.0970   54.5620  -16.8910 C   0  0  0  0  0  0  0  0  0  0  0  0
    9.6230   53.2630  -17.4980 C   0  0  0  0  0  0  0  0  0  0  0  0
    9.4070   52.0420  -16.6050 C   0  0  0  0  0  0  0  0  0  0  0  0
    8.0090   51.9910  -16.1240 N   0  0  0  0  0  0  0  0  0  0  0  0
    7.5020   50.5050  -15.4570 S   0  0  0  0  0  0  0  0  0  0  0  0
    6.9830   49.6810  -16.5310 O   0  0  0  0  0  0  0  0  0  0  0  0
    8.5370   50.0160  -14.5670 O   0  0  0  0  0  0  0  0  0  0  0  0
    6.1170   50.6930  -14.3990 C   0  0  0  0  0  0  0  0  0  0  0  0
    5.4670   49.6510  -13.7640 C   0  0  0  0  0  0  0  0  0  0  0  0
    4.4690   50.2330  -13.0380 N   0  0  0  0  0  0  0  0  0  0  0  0
    4.5400   51.5850  -13.2500 C   0  0  0  0  0  0  0  0  0  0  0  0
    5.5180   51.9010  -14.0720 N   0  0  0  0  0  0  0  0  0  0  0  0
    7.5730   53.2170  -15.4140 C   0  0  0  0  0  0  0  0  0  0  0  0
    4.6580   55.6290  -18.4950 C   0  0  0  0  0  0  0  0  0  0  0  0
    3.2370   55.9320  -17.9400 C   0  0  0  0  0  0  0  0  0  0  0  0
    2.6940   59.2820  -16.2690 C   0  0  0  0  0  0  0  0  0  0  0  0
    2.5170   63.5020  -15.6340 H   0  0  0  0  0  0  0  0  0  0  0  0
    0.8890   62.9330  -16.0290 H   0  0  0  0  0  0  0  0  0  0  0  0
    2.2410   62.7640  -17.2160 H   0  0  0  0  0  0  0  0  0  0  0  0
   -0.2150   61.0050  -16.6630 H   0  0  0  0  0  0  0  0  0  0  0  0
   -0.8370   58.8900  -17.7340 H   0  0  0  0  0  0  0  0  0  0  0  0
    0.7420   57.0290  -17.8700 H   0  0  0  0  0  0  0  0  0  0  0  0
    4.0280   55.8780  -15.3600 H   0  0  0  0  0  0  0  0  0  0  0  0
    4.2930   57.5930  -15.1190 H   0  0  0  0  0  0  0  0  0  0  0  0
    6.4260   56.6100  -15.7390 H   0  0  0  0  0  0  0  0  0  0  0  0
    5.8960   57.5800  -17.1130 H   0  0  0  0  0  0  0  0  0  0  0  0
    7.5340   55.3510  -15.7210 H   0  0  0  0  0  0  0  0  0  0  0  0
    9.7680   54.8570  -16.0730 H   0  0  0  0  0  0  0  0  0  0  0  0
    9.1480   55.3640  -17.6370 H   0  0  0  0  0  0  0  0  0  0  0  0
   10.6940   53.3740  -17.7050 H   0  0  0  0  0  0  0  0  0  0  0  0
    9.1420   53.0930  -18.4670 H   0  0  0  0  0  0  0  0  0  0  0  0
   10.1020   52.0650  -15.7590 H   0  0  0  0  0  0  0  0  0  0  0  0
    9.6300   51.1530  -17.2050 H   0  0  0  0  0  0  0  0  0  0  0  0
    5.6410   48.5830  -13.7730 H   0  0  0  0  0  0  0  0  0  0  0  0
    3.8010   49.7610  -12.4500 H   0  0  0  0  0  0  0  0  0  0  0  0
    3.8520   52.2730  -12.7740 H   0  0  0  0  0  0  0  0  0  0  0  0
    8.2130   53.3650  -14.5350 H   0  0  0  0  0  0  0  0  0  0  0  0
    6.5460   53.1030  -15.0590 H   0  0  0  0  0  0  0  0  0  0  0  0
    4.6290   54.7210  -19.1050 H   0  0  0  0  0  0  0  0  0  0  0  0
    4.9620   56.4520  -19.1560 H   0  0  0  0  0  0  0  0  0  0  0  0
    2.8340   55.0360  -17.4530 H   0  0  0  0  0  0  0  0  0  0  0  0
    2.5910   56.1710  -18.7920 H   0  0  0  0  0  0  0  0  0  0  0  0
    3.6920   59.4510  -15.8750 H   0  0  0  0  0  0  0  0  0  0  0  0
  1 32  1  0  0  0  0
  1 31  1  0  0  0  0
  1  2  1  0  0  0  0
  3  2  1  0  0  0  0
  4 34  1  0  0  0  0
  4  3  2  0  0  0  0
  5  4  1  0  0  0  0
  6  5  2  0  0  0  0
  6  7  1  0  0  0  0
  7 30  2  0  0  0  0
  8  7  1  0  0  0  0
  8  9  1  0  0  0  0
  9 37  1  0  0  0  0
  9 38  1  0  0  0  0
 10  9  1  0  0  0  0
 10 39  1  0  0  0  0
 11 12  1  0  0  0  0
 11 10  1  0  0  0  0
 12 14  1  0  0  0  0
 13 12  2  0  0  0  0
 14 41  1  1  0  0  0
 14 27  1  0  0  0  0
 15 14  1  0  0  0  0
 15 42  1  0  0  0  0
 16 15  1  0  0  0  0
 16 17  1  0  0  0  0
 17 18  1  0  0  0  0
 17 46  1  0  0  0  0
 18 19  1  0  0  0  0
 18 27  1  0  0  0  0
 19 21  2  0  0  0  0
 19 22  1  0  0  0  0
 20 19  2  0  0  0  0
 22 26  1  0  0  0  0
 22 23  2  0  0  0  0
 23 24  1  0  0  0  0
 24 49  1  0  0  0  0
 25 24  1  0  0  0  0
 25 50  1  0  0  0  0
 26 25  2  0  0  0  0
 27 52  1  0  0  0  0
 27 51  1  0  0  0  0
 28 29  1  0  0  0  0
 28 11  1  0  0  0  0
 29 55  1  0  0  0  0
 29  8  1  0  0  0  0
 30  3  1  0  0  0  0
 30 57  1  0  0  0  0
 33  1  1  0  0  0  0
 35  5  1  0  0  0  0
 36  6  1  0  0  0  0
 40 10  1  0  0  0  0
 43 15  1  0  0  0  0
 44 16  1  0  0  0  0
 45 16  1  0  0  0  0
 47 17  1  0  0  0  0
 48 23  1  0  0  0  0
 53 28  1  0  0  0  0
 54 28  1  0  0  0  0
 56 29  1  0  0  0  0
M  END
>  <Pose>
1

>  <Score>
-5.02

$$$$

 OpenBabel05082222213D

 57 60  0  0  1  0  0  0  0  0999 V2000
    7.8240   48.5420  -16.2060 C   0  0  0  0  0  0  0  0  0  0  0  0
    8.2280   49.1980  -15.0110 O   0  0  0  0  0  0  0  0  0  0  0  0
    7.2440   49.8130  -14.2860 C   0  0  0  0  0  0  0  0  0  0  0  0
    6.5280   49.2530  -13.2360 C   0  0  0  0  0  0  0  0  0  0  0  0
    5.5650   50.0180  -12.5810 C   0  0  0  0  0  0  0  0  0  0  0  0
    5.3130   51.3390  -12.9760 C   0  0  0  0  0  0  0  0  0  0  0  0
    6.0020   51.9320  -14.0400 C   0  0  0  0  0  0  0  0  0  0  0  0
    5.7850   53.2360  -14.4390 N   0  0  0  0  0  0  0  0  0  0  0  0
    5.5900   53.5740  -15.8580 C   0  0  0  0  0  0  0  0  0  0  0  0
    6.5140   54.7460  -16.2100 C   0  0  0  0  0  0  0  0  0  0  0  0
    6.1710   55.9090  -15.3830 N   0  0  0  0  0  0  0  0  0  0  0  0
    5.8670   57.1850  -15.8360 C   0  0  0  0  0  0  0  0  0  0  0  0
    5.6430   58.0980  -15.0370 O   0  0  0  0  0  0  0  0  0  0  0  0
    5.8400   57.4460  -17.3570 C   0  0  2  0  0  0  0  0  0  0  0  0
    6.0000   58.9330  -17.7090 C   0  0  0  0  0  0  0  0  0  0  0  0
    4.7240   59.7500  -17.5160 C   0  0  0  0  0  0  0  0  0  0  0  0
    3.4850   59.0980  -18.1260 C   0  0  0  0  0  0  0  0  0  0  0  0
    3.3900   57.6780  -17.7190 N   0  0  0  0  0  0  0  0  0  0  0  0
    1.8820   56.9260  -17.9780 S   0  0  0  0  0  0  0  0  0  0  0  0
    2.0280   55.5110  -17.6990 O   0  0  0  0  0  0  0  0  0  0  0  0
    0.8500   57.7170  -17.3370 O   0  0  0  0  0  0  0  0  0  0  0  0
    1.4140   56.9480  -19.6680 C   0  0  0  0  0  0  0  0  0  0  0  0
    0.4520   57.7830  -20.2060 C   0  0  0  0  0  0  0  0  0  0  0  0
    0.4140   57.4830  -21.5370 N   0  0  0  0  0  0  0  0  0  0  0  0
    1.3350   56.4950  -21.7640 C   0  0  0  0  0  0  0  0  0  0  0  0
    1.9540   56.1390  -20.6590 N   0  0  0  0  0  0  0  0  0  0  0  0
    4.5940   56.8790  -18.0490 C   0  0  0  0  0  0  0  0  0  0  0  0
    6.2400   55.6310  -13.9310 C   0  0  0  0  0  0  0  0  0  0  0  0
    5.4660   54.3470  -13.5170 C   0  0  0  0  0  0  0  0  0  0  0  0
    6.9700   51.1300  -14.6750 C   0  0  0  0  0  0  0  0  0  0  0  0
    8.6940   48.0130  -16.6070 H   0  0  0  0  0  0  0  0  0  0  0  0
    7.4980   49.2680  -16.9570 H   0  0  0  0  0  0  0  0  0  0  0  0
    7.0460   47.7980  -16.0080 H   0  0  0  0  0  0  0  0  0  0  0  0
    6.6940   48.2340  -12.9050 H   0  0  0  0  0  0  0  0  0  0  0  0
    5.0020   49.5860  -11.7570 H   0  0  0  0  0  0  0  0  0  0  0  0
    4.5380   51.8850  -12.4450 H   0  0  0  0  0  0  0  0  0  0  0  0
    4.5440   53.8730  -16.0090 H   0  0  0  0  0  0  0  0  0  0  0  0
    5.7730   52.7440  -16.5450 H   0  0  0  0  0  0  0  0  0  0  0  0
    6.4550   54.9580  -17.2750 H   0  0  0  0  0  0  0  0  0  0  0  0
    7.5570   54.4870  -15.9820 H   0  0  0  0  0  0  0  0  0  0  0  0
    6.7310   56.9590  -17.7710 H   0  0  0  0  0  0  0  0  0  0  0  0
    6.2990   59.0050  -18.7640 H   0  0  0  0  0  0  0  0  0  0  0  0
    6.8140   59.3790  -17.1250 H   0  0  0  0  0  0  0  0  0  0  0  0
    4.8660   60.7430  -17.9600 H   0  0  0  0  0  0  0  0  0  0  0  0
    4.5570   59.9160  -16.4460 H   0  0  0  0  0  0  0  0  0  0  0  0
    3.5120   59.1820  -19.2170 H   0  0  0  0  0  0  0  0  0  0  0  0
    2.6110   59.6510  -17.7640 H   0  0  0  0  0  0  0  0  0  0  0  0
   -0.1770   58.5390  -19.7550 H   0  0  0  0  0  0  0  0  0  0  0  0
   -0.1780   57.9110  -22.2310 H   0  0  0  0  0  0  0  0  0  0  0  0
    1.5000   56.0870  -22.7530 H   0  0  0  0  0  0  0  0  0  0  0  0
    4.7440   56.8950  -19.1360 H   0  0  0  0  0  0  0  0  0  0  0  0
    4.4480   55.8370  -17.7520 H   0  0  0  0  0  0  0  0  0  0  0  0
    5.8850   56.4810  -13.3400 H   0  0  0  0  0  0  0  0  0  0  0  0
    7.3040   55.4940  -13.6930 H   0  0  0  0  0  0  0  0  0  0  0  0
    4.3870   54.5410  -13.5510 H   0  0  0  0  0  0  0  0  0  0  0  0
    5.7340   54.1160  -12.4800 H   0  0  0  0  0  0  0  0  0  0  0  0
    7.5760   51.5370  -15.4790 H   0  0  0  0  0  0  0  0  0  0  0  0
  1 33  1  0  0  0  0
  1  2  1  0  0  0  0
  2  3  1  0  0  0  0
  3  4  1  0  0  0  0
  4 34  1  0  0  0  0
  4  5  2  0  0  0  0
  5 35  1  0  0  0  0
  6  5  1  0  0  0  0
  6 36  1  0  0  0  0
  7  6  2  0  0  0  0
  8  7  1  0  0  0  0
  8 29  1  0  0  0  0
  9  8  1  0  0  0  0
 10 40  1  0  0  0  0
 10  9  1  0  0  0  0
 10 11  1  0  0  0  0
 11 28  1  0  0  0  0
 12 11  1  0  0  0  0
 12 13  2  0  0  0  0
 14 41  1  6  0  0  0
 14 12  1  0  0  0  0
 15 16  1  0  0  0  0
 15 14  1  0  0  0  0
 15 43  1  0  0  0  0
 16 45  1  0  0  0  0
 17 47  1  0  0  0  0
 17 18  1  0  0  0  0
 17 16  1  0  0  0  0
 19 18  1  0  0  0  0
 19 20  2  0  0  0  0
 19 21  2  0  0  0  0
 22 19  1  0  0  0  0
 23 48  1  0  0  0  0
 23 22  2  0  0  0  0
 24 23  1  0  0  0  0
 25 24  1  0  0  0  0
 25 26  2  0  0  0  0
 26 22  1  0  0  0  0
 27 52  1  0  0  0  0
 27 18  1  0  0  0  0
 27 14  1  0  0  0  0
 28 54  1  0  0  0  0
 28 29  1  0  0  0  0
 28 53  1  0  0  0  0
 29 56  1  0  0  0  0
 30  3  2  0  0  0  0
 30  7  1  0  0  0  0
 31  1  1  0  0  0  0
 32  1  1  0  0  0  0
 37  9  1  0  0  0  0
 38  9  1  0  0  0  0
 39 10  1  0  0  0  0
 42 15  1  0  0  0  0
 44 16  1  0  0  0  0
 46 17  1  0  0  0  0
 49 24  1  0  0  0  0
 50 25  1  0  0  0  0
 51 27  1  0  0  0  0
 55 29  1  0  0  0  0
 57 30  1  0  0  0  0
M  END
>  <Pose>
1

>  <Score>
-4.96

$$$$

 OpenBabel05082222213D

 57 60  0  0  1  0  0  0  0  0999 V2000
   -0.3880   58.7440  -21.0200 C   0  0  0  0  0  0  0  0  0  0  0  0
    0.2460   57.7400  -20.2390 O   0  0  0  0  0  0  0  0  0  0  0  0
    1.5330   57.4200  -20.5780 C   0  0  0  0  0  0  0  0  0  0  0  0
    2.1980   57.8110  -21.7330 C   0  0  0  0  0  0  0  0  0  0  0  0
    3.5210   57.4180  -21.9260 C   0  0  0  0  0  0  0  0  0  0  0  0
    4.1790   56.6320  -20.9690 C   0  0  0  0  0  0  0  0  0  0  0  0
    3.5360   56.2060  -19.8010 C   0  0  0  0  0  0  0  0  0  0  0  0
    4.1670   55.4460  -18.8350 N   0  0  0  0  0  0  0  0  0  0  0  0
    3.5440   55.2210  -17.5200 C   0  0  0  0  0  0  0  0  0  0  0  0
    4.5810   55.5300  -16.4330 C   0  0  0  0  0  0  0  0  0  0  0  0
    5.7340   54.6350  -16.5830 N   0  0  0  0  0  0  0  0  0  0  0  0
    6.2770   53.8150  -15.6040 C   0  0  0  0  0  0  0  0  0  0  0  0
    7.2840   53.1420  -15.8370 O   0  0  0  0  0  0  0  0  0  0  0  0
    5.6130   53.7820  -14.2110 C   0  0  2  0  0  0  0  0  0  0  0  0
    6.5350   54.3050  -13.0990 C   0  0  0  0  0  0  0  0  0  0  0  0
    7.5920   53.2970  -12.6530 C   0  0  0  0  0  0  0  0  0  0  0  0
    7.0290   51.9020  -12.3870 C   0  0  0  0  0  0  0  0  0  0  0  0
    6.1760   51.4620  -13.5120 N   0  0  0  0  0  0  0  0  0  0  0  0
    5.8010   49.7980  -13.5600 S   0  0  0  0  0  0  0  0  0  0  0  0
    4.7500   49.5440  -12.5950 O   0  0  0  0  0  0  0  0  0  0  0  0
    5.6670   49.3900  -14.9440 O   0  0  0  0  0  0  0  0  0  0  0  0
    7.1230   48.8060  -12.9740 C   0  0  0  0  0  0  0  0  0  0  0  0
    8.4080   49.2620  -12.7520 C   0  0  0  0  0  0  0  0  0  0  0  0
    9.1040   48.1810  -12.2930 N   0  0  0  0  0  0  0  0  0  0  0  0
    8.2370   47.1220  -12.2500 C   0  0  0  0  0  0  0  0  0  0  0  0
    7.0330   47.4570  -12.6610 N   0  0  0  0  0  0  0  0  0  0  0  0
    5.0710   52.3980  -13.8290 C   0  0  0  0  0  0  0  0  0  0  0  0
    6.3650   54.7190  -17.9190 C   0  0  0  0  0  0  0  0  0  0  0  0
    5.3450   54.5890  -19.0860 C   0  0  0  0  0  0  0  0  0  0  0  0
    2.2030   56.6250  -19.6390 C   0  0  0  0  0  0  0  0  0  0  0  0
   -1.3570   58.9630  -20.5610 H   0  0  0  0  0  0  0  0  0  0  0  0
   -0.5720   58.3870  -22.0380 H   0  0  0  0  0  0  0  0  0  0  0  0
    0.1940   59.6720  -21.0240 H   0  0  0  0  0  0  0  0  0  0  0  0
    1.7200   58.4150  -22.4950 H   0  0  0  0  0  0  0  0  0  0  0  0
    4.0470   57.7210  -22.8280 H   0  0  0  0  0  0  0  0  0  0  0  0
    5.2030   56.3370  -21.1770 H   0  0  0  0  0  0  0  0  0  0  0  0
    3.2400   54.1680  -17.4490 H   0  0  0  0  0  0  0  0  0  0  0  0
    2.6410   55.8120  -17.3450 H   0  0  0  0  0  0  0  0  0  0  0  0
    4.1190   55.4580  -15.4500 H   0  0  0  0  0  0  0  0  0  0  0  0
    4.9540   56.5570  -16.5470 H   0  0  0  0  0  0  0  0  0  0  0  0
    4.7800   54.4940  -14.2470 H   0  0  0  0  0  0  0  0  0  0  0  0
    5.9130   54.5600  -12.2300 H   0  0  0  0  0  0  0  0  0  0  0  0
    7.0240   55.2350  -13.4130 H   0  0  0  0  0  0  0  0  0  0  0  0
    8.0790   53.6690  -11.7430 H   0  0  0  0  0  0  0  0  0  0  0  0
    8.3770   53.2320  -13.4140 H   0  0  0  0  0  0  0  0  0  0  0  0
    6.4610   51.8960  -11.4510 H   0  0  0  0  0  0  0  0  0  0  0  0
    7.8800   51.2210  -12.2730 H   0  0  0  0  0  0  0  0  0  0  0  0
    8.8570   50.2390  -12.8780 H   0  0  0  0  0  0  0  0  0  0  0  0
   10.0760   48.1620  -12.0270 H   0  0  0  0  0  0  0  0  0  0  0  0
    8.5510   46.1420  -11.9100 H   0  0  0  0  0  0  0  0  0  0  0  0
    4.4220   52.4930  -12.9490 H   0  0  0  0  0  0  0  0  0  0  0  0
    4.4630   52.0020  -14.6460 H   0  0  0  0  0  0  0  0  0  0  0  0
    7.1570   53.9730  -18.0380 H   0  0  0  0  0  0  0  0  0  0  0  0
    6.8410   55.7070  -17.9740 H   0  0  0  0  0  0  0  0  0  0  0  0
    5.0170   53.5470  -19.1730 H   0  0  0  0  0  0  0  0  0  0  0  0
    5.8630   54.8580  -20.0130 H   0  0  0  0  0  0  0  0  0  0  0  0
    1.6540   56.3720  -18.7370 H   0  0  0  0  0  0  0  0  0  0  0  0
  1 31  1  0  0  0  0
  1  2  1  0  0  0  0
  3  2  1  0  0  0  0
  3 30  1  0  0  0  0
  4  3  2  0  0  0  0
  5  4  1  0  0  0  0
  5  6  2  0  0  0  0
  6  7  1  0  0  0  0
  7 30  2  0  0  0  0
  7  8  1  0  0  0  0
  8  9  1  0  0  0  0
  9 37  1  0  0  0  0
  9 38  1  0  0  0  0
  9 10  1  0  0  0  0
 10 39  1  0  0  0  0
 11 10  1  0  0  0  0
 11 12  1  0  0  0  0
 12 14  1  0  0  0  0
 13 12  2  0  0  0  0
 14 41  1  6  0  0  0
 14 27  1  0  0  0  0
 14 15  1  0  0  0  0
 15 16  1  0  0  0  0
 15 42  1  0  0  0  0
 16 17  1  0  0  0  0
 16 44  1  0  0  0  0
 17 47  1  0  0  0  0
 17 46  1  0  0  0  0
 18 17  1  0  0  0  0
 19 18  1  0  0  0  0
 19 22  1  0  0  0  0
 19 20  2  0  0  0  0
 21 19  2  0  0  0  0
 22 23  2  0  0  0  0
 22 26  1  0  0  0  0
 23 24  1  0  0  0  0
 24 25  1  0  0  0  0
 24 49  1  0  0  0  0
 25 50  1  0  0  0  0
 26 25  2  0  0  0  0
 27 18  1  0  0  0  0
 27 51  1  0  0  0  0
 28 11  1  0  0  0  0
 29  8  1  0  0  0  0
 29 28  1  0  0  0  0
 30 57  1  0  0  0  0
 32  1  1  0  0  0  0
 33  1  1  0  0  0  0
 34  4  1  0  0  0  0
 35  5  1  0  0  0  0
 36  6  1  0  0  0  0
 40 10  1  0  0  0  0
 43 15  1  0  0  0  0
 45 16  1  0  0  0  0
 48 23  1  0  0  0  0
 52 27  1  0  0  0  0
 53 28  1  0  0  0  0
 54 28  1  0  0  0  0
 55 29  1  0  0  0  0
 56 29  1  0  0  0  0
M  END
>  <Pose>
1

>  <Score>
-4.94

$$$$

 OpenBabel05082222213D

 57 60  0  0  1  0  0  0  0  0999 V2000
   -2.5570   55.1930  -24.9330 C   0  0  0  0  0  0  0  0  0  0  0  0
   -1.5950   56.2200  -25.1340 O   0  0  0  0  0  0  0  0  0  0  0  0
   -1.8150   57.4020  -24.4790 C   0  0  0  0  0  0  0  0  0  0  0  0
   -2.8610   58.2850  -24.7090 C   0  0  0  0  0  0  0  0  0  0  0  0
   -2.9580   59.4440  -23.9420 C   0  0  0  0  0  0  0  0  0  0  0  0
   -2.0100   59.7250  -22.9500 C   0  0  0  0  0  0  0  0  0  0  0  0
   -0.9320   58.8670  -22.7000 C   0  0  0  0  0  0  0  0  0  0  0  0
    0.0070   59.1120  -21.7160 N   0  0  0  0  0  0  0  0  0  0  0  0
   -0.0830   58.4550  -20.4020 C   0  0  0  0  0  0  0  0  0  0  0  0
    0.0620   59.5270  -19.3140 C   0  0  0  0  0  0  0  0  0  0  0  0
    1.3690   60.1830  -19.4400 N   0  0  0  0  0  0  0  0  0  0  0  0
    2.3240   60.3230  -18.4430 C   0  0  0  0  0  0  0  0  0  0  0  0
    3.3690   60.9410  -18.6580 O   0  0  0  0  0  0  0  0  0  0  0  0
    2.0420   59.7120  -17.0540 C   0  0  2  0  0  0  0  0  0  0  0  0
    3.1270   60.0520  -16.0210 C   0  0  0  0  0  0  0  0  0  0  0  0
    4.3960   59.2150  -16.1660 C   0  0  0  0  0  0  0  0  0  0  0  0
    4.1260   57.7190  -16.3100 C   0  0  0  0  0  0  0  0  0  0  0  0
    3.0910   57.4740  -17.3380 N   0  0  0  0  0  0  0  0  0  0  0  0
    2.9600   55.8680  -17.8990 S   0  0  0  0  0  0  0  0  0  0  0  0
    2.5610   55.0310  -16.7860 O   0  0  0  0  0  0  0  0  0  0  0  0
    2.2190   55.8680  -19.1450 O   0  0  0  0  0  0  0  0  0  0  0  0
    4.5150   55.2000  -18.3570 C   0  0  0  0  0  0  0  0  0  0  0  0
    4.8070   54.6700  -19.6000 C   0  0  0  0  0  0  0  0  0  0  0  0
    6.1140   54.2820  -19.5330 N   0  0  0  0  0  0  0  0  0  0  0  0
    6.5680   54.5810  -18.2760 C   0  0  0  0  0  0  0  0  0  0  0  0
    5.6300   55.1300  -17.5340 N   0  0  0  0  0  0  0  0  0  0  0  0
    1.8190   58.1940  -17.0920 C   0  0  0  0  0  0  0  0  0  0  0  0
    1.5900   60.7860  -20.7740 C   0  0  0  0  0  0  0  0  0  0  0  0
    1.2910   59.8070  -21.9440 C   0  0  0  0  0  0  0  0  0  0  0  0
   -0.8690   57.7050  -23.4910 C   0  0  0  0  0  0  0  0  0  0  0  0
   -2.1880   54.2880  -25.4250 H   0  0  0  0  0  0  0  0  0  0  0  0
   -3.5130   55.4590  -25.3940 H   0  0  0  0  0  0  0  0  0  0  0  0
   -2.6800   54.9650  -23.8690 H   0  0  0  0  0  0  0  0  0  0  0  0
   -3.6110   58.1030  -25.4710 H   0  0  0  0  0  0  0  0  0  0  0  0
   -3.7760   60.1390  -24.1180 H   0  0  0  0  0  0  0  0  0  0  0  0
   -2.1200   60.6520  -22.3940 H   0  0  0  0  0  0  0  0  0  0  0  0
    0.7350   57.7290  -20.3140 H   0  0  0  0  0  0  0  0  0  0  0  0
   -1.0080   57.8950  -20.2430 H   0  0  0  0  0  0  0  0  0  0  0  0
   -0.0890   59.0810  -18.3330 H   0  0  0  0  0  0  0  0  0  0  0  0
   -0.7020   60.3050  -19.4440 H   0  0  0  0  0  0  0  0  0  0  0  0
    1.1330   60.1970  -16.6800 H   0  0  0  0  0  0  0  0  0  0  0  0
    2.7130   59.8800  -15.0190 H   0  0  0  0  0  0  0  0  0  0  0  0
    3.3820   61.1180  -16.0730 H   0  0  0  0  0  0  0  0  0  0  0  0
    5.0370   59.3840  -15.2920 H   0  0  0  0  0  0  0  0  0  0  0  0
    4.9670   59.5650  -17.0330 H   0  0  0  0  0  0  0  0  0  0  0  0
    3.8170   57.2960  -15.3480 H   0  0  0  0  0  0  0  0  0  0  0  0
    5.0670   57.2410  -16.6050 H   0  0  0  0  0  0  0  0  0  0  0  0
    4.2040   54.5520  -20.4910 H   0  0  0  0  0  0  0  0  0  0  0  0
    6.6520   53.8560  -20.2710 H   0  0  0  0  0  0  0  0  0  0  0  0
    7.5880   54.3740  -17.9740 H   0  0  0  0  0  0  0  0  0  0  0  0
    1.4040   57.8650  -16.1300 H   0  0  0  0  0  0  0  0  0  0  0  0
    1.0890   57.9470  -17.8670 H   0  0  0  0  0  0  0  0  0  0  0  0
    2.6060   61.1800  -20.8740 H   0  0  0  0  0  0  0  0  0  0  0  0
    0.9040   61.6400  -20.8430 H   0  0  0  0  0  0  0  0  0  0  0  0
    2.0930   59.0620  -22.0140 H   0  0  0  0  0  0  0  0  0  0  0  0
    1.2890   60.3880  -22.8730 H   0  0  0  0  0  0  0  0  0  0  0  0
   -0.0870   56.9700  -23.3240 H   0  0  0  0  0  0  0  0  0  0  0  0
  1 33  1  0  0  0  0
  2  1  1  0  0  0  0
  2  3  1  0  0  0  0
  3 30  1  0  0  0  0
  4  3  2  0  0  0  0
  4  5  1  0  0  0  0
  5  6  2  0  0  0  0
  6  7  1  0  0  0  0
  6 36  1  0  0  0  0
  7  8  1  0  0  0  0
  8  9  1  0  0  0  0
  9 37  1  0  0  0  0
  9 38  1  0  0  0  0
  9 10  1  0  0  0  0
 10 39  1  0  0  0  0
 11 10  1  0  0  0  0
 11 12  1  0  0  0  0
 12 14  1  0  0  0  0
 13 12  2  0  0  0  0
 14 41  1  1  0  0  0
 14 15  1  0  0  0  0
 15 42  1  0  0  0  0
 16 15  1  0  0  0  0
 16 44  1  0  0  0  0
 17 16  1  0  0  0  0
 17 46  1  0  0  0  0
 18 27  1  0  0  0  0
 18 17  1  0  0  0  0
 19 18  1  0  0  0  0
 19 20  2  0  0  0  0
 21 19  2  0  0  0  0
 22 19  1  0  0  0  0
 22 26  1  0  0  0  0
 23 24  1  0  0  0  0
 23 22  2  0  0  0  0
 24 25  1  0  0  0  0
 25 50  1  0  0  0  0
 25 26  2  0  0  0  0
 27 14  1  0  0  0  0
 27 51  1  0  0  0  0
 28 11  1  0  0  0  0
 29  8  1  0  0  0  0
 29 28  1  0  0  0  0
 30 57  1  0  0  0  0
 30  7  2  0  0  0  0
 31  1  1  0  0  0  0
 32  1  1  0  0  0  0
 34  4  1  0  0  0  0
 35  5  1  0  0  0  0
 40 10  1  0  0  0  0
 43 15  1  0  0  0  0
 45 16  1  0  0  0  0
 47 17  1  0  0  0  0
 48 23  1  0  0  0  0
 49 24  1  0  0  0  0
 52 27  1  0  0  0  0
 53 28  1  0  0  0  0
 54 28  1  0  0  0  0
 55 29  1  0  0  0  0
 56 29  1  0  0  0  0
M  END
>  <Pose>
1

>  <Score>
-4.94

$$$$

 OpenBabel05082222213D

 57 60  0  0  1  0  0  0  0  0999 V2000
   -3.0750   59.9810  -23.1190 C   0  0  0  0  0  0  0  0  0  0  0  0
   -2.2190   59.8140  -21.9970 O   0  0  0  0  0  0  0  0  0  0  0  0
   -0.8740   59.7980  -22.2490 C   0  0  0  0  0  0  0  0  0  0  0  0
   -0.1920   60.6380  -23.1200 C   0  0  0  0  0  0  0  0  0  0  0  0
    1.1890   60.5090  -23.2530 C   0  0  0  0  0  0  0  0  0  0  0  0
    1.8890   59.5410  -22.5210 C   0  0  0  0  0  0  0  0  0  0  0  0
    1.2350   58.6650  -21.6460 C   0  0  0  0  0  0  0  0  0  0  0  0
    1.9030   57.7140  -20.9010 N   0  0  0  0  0  0  0  0  0  0  0  0
    1.3710   57.2510  -19.6080 C   0  0  0  0  0  0  0  0  0  0  0  0
    2.4980   57.3130  -18.5700 C   0  0  0  0  0  0  0  0  0  0  0  0
    3.5980   56.4350  -18.9840 N   0  0  0  0  0  0  0  0  0  0  0  0
    4.1790   55.4240  -18.2300 C   0  0  0  0  0  0  0  0  0  0  0  0
    5.1360   54.7840  -18.6710 O   0  0  0  0  0  0  0  0  0  0  0  0
    3.6190   55.1350  -16.8200 C   0  0  2  0  0  0  0  0  0  0  0  0
    3.6560   56.3650  -15.9010 C   0  0  0  0  0  0  0  0  0  0  0  0
    5.0390   56.6600  -15.3250 C   0  0  0  0  0  0  0  0  0  0  0  0
    5.7310   55.4300  -14.7420 C   0  0  0  0  0  0  0  0  0  0  0  0
    5.6750   54.3000  -15.6960 N   0  0  0  0  0  0  0  0  0  0  0  0
    6.7310   52.9990  -15.3760 S   0  0  0  0  0  0  0  0  0  0  0  0
    6.9620   52.2880  -16.6180 O   0  0  0  0  0  0  0  0  0  0  0  0
    7.8330   53.4800  -14.5680 O   0  0  0  0  0  0  0  0  0  0  0  0
    5.9870   51.7810  -14.3570 C   0  0  0  0  0  0  0  0  0  0  0  0
    4.7780   51.9330  -13.7060 C   0  0  0  0  0  0  0  0  0  0  0  0
    4.5700   50.7580  -13.0440 N   0  0  0  0  0  0  0  0  0  0  0  0
    5.6380   49.9420  -13.3070 C   0  0  0  0  0  0  0  0  0  0  0  0
    6.5200   50.5260  -14.0910 N   0  0  0  0  0  0  0  0  0  0  0  0
    4.3020   53.9480  -16.1280 C   0  0  0  0  0  0  0  0  0  0  0  0
    4.1310   56.7640  -20.3250 C   0  0  0  0  0  0  0  0  0  0  0  0
    3.0220   56.8930  -21.4080 C   0  0  0  0  0  0  0  0  0  0  0  0
   -0.1590   58.8280  -21.5350 C   0  0  0  0  0  0  0  0  0  0  0  0
   -4.0990   60.0840  -22.7470 H   0  0  0  0  0  0  0  0  0  0  0  0
   -3.0420   59.1010  -23.7690 H   0  0  0  0  0  0  0  0  0  0  0  0
   -2.8310   60.8930  -23.6740 H   0  0  0  0  0  0  0  0  0  0  0  0
   -0.7010   61.3960  -23.7050 H   0  0  0  0  0  0  0  0  0  0  0  0
    1.7280   61.1650  -23.9330 H   0  0  0  0  0  0  0  0  0  0  0  0
    2.9610   59.4690  -22.6770 H   0  0  0  0  0  0  0  0  0  0  0  0
    1.0300   56.2130  -19.7190 H   0  0  0  0  0  0  0  0  0  0  0  0
    0.5100   57.8200  -19.2490 H   0  0  0  0  0  0  0  0  0  0  0  0
    2.1080   57.0610  -17.5850 H   0  0  0  0  0  0  0  0  0  0  0  0
    2.9050   58.3320  -18.5120 H   0  0  0  0  0  0  0  0  0  0  0  0
    2.5550   54.9080  -16.9500 H   0  0  0  0  0  0  0  0  0  0  0  0
    2.9650   56.1890  -15.0660 H   0  0  0  0  0  0  0  0  0  0  0  0
    3.2820   57.2490  -16.4310 H   0  0  0  0  0  0  0  0  0  0  0  0
    4.9450   57.4250  -14.5450 H   0  0  0  0  0  0  0  0  0  0  0  0
    5.6730   57.0970  -16.1050 H   0  0  0  0  0  0  0  0  0  0  0  0
    5.2670   55.1500  -13.7910 H   0  0  0  0  0  0  0  0  0  0  0  0
    6.7740   55.7020  -14.5440 H   0  0  0  0  0  0  0  0  0  0  0  0
    4.0780   52.7580  -13.6720 H   0  0  0  0  0  0  0  0  0  0  0  0
    3.7760   50.5250  -12.4690 H   0  0  0  0  0  0  0  0  0  0  0  0
    5.7060   48.9410  -12.8980 H   0  0  0  0  0  0  0  0  0  0  0  0
    3.7160   53.6570  -15.2470 H   0  0  0  0  0  0  0  0  0  0  0  0
    4.3280   53.0900  -16.8050 H   0  0  0  0  0  0  0  0  0  0  0  0
    4.8800   56.0350  -20.6510 H   0  0  0  0  0  0  0  0  0  0  0  0
    4.6430   57.7300  -20.2260 H   0  0  0  0  0  0  0  0  0  0  0  0
    2.6450   55.8970  -21.6690 H   0  0  0  0  0  0  0  0  0  0  0  0
    3.4810   57.3250  -22.3040 H   0  0  0  0  0  0  0  0  0  0  0  0
   -0.7280   58.2160  -20.8410 H   0  0  0  0  0  0  0  0  0  0  0  0
  1 31  1  0  0  0  0
  1  2  1  0  0  0  0
  3  2  1  0  0  0  0
  3 30  1  0  0  0  0
  4  3  2  0  0  0  0
  5  4  1  0  0  0  0
  5  6  2  0  0  0  0
  6  7  1  0  0  0  0
  7 30  2  0  0  0  0
  7  8  1  0  0  0  0
  8  9  1  0  0  0  0
  9 38  1  0  0  0  0
  9 10  1  0  0  0  0
 10 40  1  0  0  0  0
 10 39  1  0  0  0  0
 11 10  1  0  0  0  0
 11 12  1  0  0  0  0
 12 14  1  0  0  0  0
 13 12  2  0  0  0  0
 14 41  1  6  0  0  0
 14 27  1  0  0  0  0
 14 15  1  0  0  0  0
 15 16  1  0  0  0  0
 15 42  1  0  0  0  0
 16 17  1  0  0  0  0
 16 44  1  0  0  0  0
 17 47  1  0  0  0  0
 17 46  1  0  0  0  0
 18 19  1  0  0  0  0
 18 17  1  0  0  0  0
 19 21  2  0  0  0  0
 19 22  1  0  0  0  0
 20 19  2  0  0  0  0
 22 26  1  0  0  0  0
 22 23  2  0  0  0  0
 23 48  1  0  0  0  0
 23 24  1  0  0  0  0
 24 49  1  0  0  0  0
 25 24  1  0  0  0  0
 25 50  1  0  0  0  0
 26 25  2  0  0  0  0
 27 18  1  0  0  0  0
 27 51  1  0  0  0  0
 28 54  1  0  0  0  0
 28 11  1  0  0  0  0
 29  8  1  0  0  0  0
 29 28  1  0  0  0  0
 30 57  1  0  0  0  0
 32  1  1  0  0  0  0
 33  1  1  0  0  0  0
 34  4  1  0  0  0  0
 35  5  1  0  0  0  0
 36  6  1  0  0  0  0
 37  9  1  0  0  0  0
 43 15  1  0  0  0  0
 45 16  1  0  0  0  0
 52 27  1  0  0  0  0
 53 28  1  0  0  0  0
 55 29  1  0  0  0  0
 56 29  1  0  0  0  0
M  END
>  <Pose>
1

>  <Score>
-4.88

$$$$

 OpenBabel05082222213D

 57 60  0  0  1  0  0  0  0  0999 V2000
    5.1450   46.1670  -18.3350 C   0  0  0  0  0  0  0  0  0  0  0  0
    6.5030   46.4990  -18.0750 O   0  0  0  0  0  0  0  0  0  0  0  0
    6.8260   46.7870  -16.7760 C   0  0  0  0  0  0  0  0  0  0  0  0
    7.4660   45.9390  -15.8830 C   0  0  0  0  0  0  0  0  0  0  0  0
    7.7440   46.3880  -14.5930 C   0  0  0  0  0  0  0  0  0  0  0  0
    7.3790   47.6820  -14.1940 C   0  0  0  0  0  0  0  0  0  0  0  0
    6.7190   48.5600  -15.0610 C   0  0  0  0  0  0  0  0  0  0  0  0
    6.3640   49.8440  -14.6990 N   0  0  0  0  0  0  0  0  0  0  0  0
    6.8020   51.0050  -15.4930 C   0  0  0  0  0  0  0  0  0  0  0  0
    7.4040   52.0450  -14.5390 C   0  0  0  0  0  0  0  0  0  0  0  0
    6.3870   52.4740  -13.5720 N   0  0  0  0  0  0  0  0  0  0  0  0
    5.9960   53.7790  -13.3080 C   0  0  0  0  0  0  0  0  0  0  0  0
    5.1610   54.0180  -12.4320 O   0  0  0  0  0  0  0  0  0  0  0  0
    6.6440   54.9260  -14.1130 C   0  0  2  0  0  0  0  0  0  0  0  0
    6.6290   56.2650  -13.3600 C   0  0  0  0  0  0  0  0  0  0  0  0
    5.2740   56.9690  -13.3880 C   0  0  0  0  0  0  0  0  0  0  0  0
    4.6500   57.0340  -14.7800 C   0  0  0  0  0  0  0  0  0  0  0  0
    4.6800   55.7030  -15.4260 N   0  0  0  0  0  0  0  0  0  0  0  0
    3.6800   55.5150  -16.7950 S   0  0  0  0  0  0  0  0  0  0  0  0
    3.0320   54.2220  -16.7070 O   0  0  0  0  0  0  0  0  0  0  0  0
    2.9120   56.7300  -16.9830 O   0  0  0  0  0  0  0  0  0  0  0  0
    4.6070   55.3920  -18.2790 C   0  0  0  0  0  0  0  0  0  0  0  0
    5.6870   54.5500  -18.4620 C   0  0  0  0  0  0  0  0  0  0  0  0
    6.0980   54.7590  -19.7470 N   0  0  0  0  0  0  0  0  0  0  0  0
    5.2710   55.7020  -20.2950 C   0  0  0  0  0  0  0  0  0  0  0  0
    4.3610   56.1150  -19.4380 N   0  0  0  0  0  0  0  0  0  0  0  0
    6.0340   55.1070  -15.5090 C   0  0  0  0  0  0  0  0  0  0  0  0
    5.8130   51.3520  -12.7960 C   0  0  0  0  0  0  0  0  0  0  0  0
    5.3360   50.1720  -13.6890 C   0  0  0  0  0  0  0  0  0  0  0  0
    6.4590   48.0720  -16.3560 C   0  0  0  0  0  0  0  0  0  0  0  0
    5.0710   45.8580  -19.3820 H   0  0  0  0  0  0  0  0  0  0  0  0
    4.4980   47.0380  -18.1960 H   0  0  0  0  0  0  0  0  0  0  0  0
    4.8160   45.3250  -17.7170 H   0  0  0  0  0  0  0  0  0  0  0  0
    7.7590   44.9310  -16.1550 H   0  0  0  0  0  0  0  0  0  0  0  0
    8.2450   45.7290  -13.8890 H   0  0  0  0  0  0  0  0  0  0  0  0
    7.6020   47.9750  -13.1730 H   0  0  0  0  0  0  0  0  0  0  0  0
    5.9280   51.4340  -16.0000 H   0  0  0  0  0  0  0  0  0  0  0  0
    7.5240   50.7640  -16.2770 H   0  0  0  0  0  0  0  0  0  0  0  0
    7.8160   52.8740  -15.1100 H   0  0  0  0  0  0  0  0  0  0  0  0
    8.2270   51.5990  -13.9630 H   0  0  0  0  0  0  0  0  0  0  0  0
    7.7050   54.6710  -14.2170 H   0  0  0  0  0  0  0  0  0  0  0  0
    7.3720   56.9270  -13.8240 H   0  0  0  0  0  0  0  0  0  0  0  0
    6.9480   56.1220  -12.3200 H   0  0  0  0  0  0  0  0  0  0  0  0
    5.3940   57.9870  -12.9970 H   0  0  0  0  0  0  0  0  0  0  0  0
    4.5850   56.4600  -12.7050 H   0  0  0  0  0  0  0  0  0  0  0  0
    5.1760   57.7700  -15.3960 H   0  0  0  0  0  0  0  0  0  0  0  0
    3.6130   57.3690  -14.6600 H   0  0  0  0  0  0  0  0  0  0  0  0
    6.1690   53.8440  -17.7980 H   0  0  0  0  0  0  0  0  0  0  0  0
    6.8650   54.3020  -20.2130 H   0  0  0  0  0  0  0  0  0  0  0  0
    5.3890   56.0380  -21.3190 H   0  0  0  0  0  0  0  0  0  0  0  0
    6.6780   55.7700  -16.1020 H   0  0  0  0  0  0  0  0  0  0  0  0
    5.9920   54.1430  -16.0220 H   0  0  0  0  0  0  0  0  0  0  0  0
    4.9900   51.6850  -12.1560 H   0  0  0  0  0  0  0  0  0  0  0  0
    6.6130   50.9940  -12.1340 H   0  0  0  0  0  0  0  0  0  0  0  0
    4.4080   50.4510  -14.2020 H   0  0  0  0  0  0  0  0  0  0  0  0
    5.1150   49.3240  -13.0320 H   0  0  0  0  0  0  0  0  0  0  0  0
    5.9900   48.7120  -17.0980 H   0  0  0  0  0  0  0  0  0  0  0  0
  1 32  1  0  0  0  0
  1  2  1  0  0  0  0
  1 33  1  0  0  0  0
  2  3  1  0  0  0  0
  3 30  2  0  0  0  0
  3  4  1  0  0  0  0
  4  5  2  0  0  0  0
  5  6  1  0  0  0  0
  5 35  1  0  0  0  0
  6 36  1  0  0  0  0
  7  8  1  0  0  0  0
  7  6  2  0  0  0  0
  8 29  1  0  0  0  0
  9  8  1  0  0  0  0
  9 10  1  0  0  0  0
 10 40  1  0  0  0  0
 10 11  1  0  0  0  0
 11 12  1  0  0  0  0
 11 28  1  0  0  0  0
 12 13  2  0  0  0  0
 14 41  1  6  0  0  0
 14 15  1  0  0  0  0
 14 12  1  0  0  0  0
 15 43  1  0  0  0  0
 16 15  1  0  0  0  0
 16 44  1  0  0  0  0
 16 45  1  0  0  0  0
 17 47  1  0  0  0  0
 17 16  1  0  0  0  0
 18 17  1  0  0  0  0
 19 20  2  0  0  0  0
 19 18  1  0  0  0  0
 21 19  2  0  0  0  0
 22 19  1  0  0  0  0
 23 22  2  0  0  0  0
 23 48  1  0  0  0  0
 24 23  1  0  0  0  0
 25 24  1  0  0  0  0
 25 26  2  0  0  0  0
 26 22  1  0  0  0  0
 27 18  1  0  0  0  0
 27 14  1  0  0  0  0
 28 53  1  0  0  0  0
 28 54  1  0  0  0  0
 29 56  1  0  0  0  0
 29 28  1  0  0  0  0
 30  7  1  0  0  0  0
 31  1  1  0  0  0  0
 34  4  1  0  0  0  0
 37  9  1  0  0  0  0
 38  9  1  0  0  0  0
 39 10  1  0  0  0  0
 42 15  1  0  0  0  0
 46 17  1  0  0  0  0
 49 24  1  0  0  0  0
 50 25  1  0  0  0  0
 51 27  1  0  0  0  0
 52 27  1  0  0  0  0
 55 29  1  0  0  0  0
 57 30  1  0  0  0  0
M  END
>  <Pose>
1

>  <Score>
-4.88

$$$$

 OpenBabel05082222213D

 57 60  0  0  1  0  0  0  0  0999 V2000
    4.9260   50.7430  -12.9860 C   0  0  0  0  0  0  0  0  0  0  0  0
    5.6110   51.4560  -14.0070 O   0  0  0  0  0  0  0  0  0  0  0  0
    5.6990   52.8140  -13.8550 C   0  0  0  0  0  0  0  0  0  0  0  0
    6.1870   53.4840  -12.7410 C   0  0  0  0  0  0  0  0  0  0  0  0
    6.2290   54.8770  -12.7470 C   0  0  0  0  0  0  0  0  0  0  0  0
    5.7800   55.6000  -13.8600 C   0  0  0  0  0  0  0  0  0  0  0  0
    5.2660   54.9600  -14.9940 C   0  0  0  0  0  0  0  0  0  0  0  0
    4.8330   55.6480  -16.1100 N   0  0  0  0  0  0  0  0  0  0  0  0
    3.6000   55.2550  -16.8130 C   0  0  0  0  0  0  0  0  0  0  0  0
    3.9100   55.1520  -18.3120 C   0  0  0  0  0  0  0  0  0  0  0  0
    4.3590   56.4560  -18.8130 N   0  0  0  0  0  0  0  0  0  0  0  0
    3.8290   57.1560  -19.8880 C   0  0  0  0  0  0  0  0  0  0  0  0
    4.3280   58.2260  -20.2460 O   0  0  0  0  0  0  0  0  0  0  0  0
    2.6210   56.5590  -20.6400 C   0  0  2  0  0  0  0  0  0  0  0  0
    2.8430   56.4810  -22.1580 C   0  0  0  0  0  0  0  0  0  0  0  0
    2.6670   57.8180  -22.8740 C   0  0  0  0  0  0  0  0  0  0  0  0
    1.3950   58.5620  -22.4720 C   0  0  0  0  0  0  0  0  0  0  0  0
    1.2680   58.6150  -20.9990 N   0  0  0  0  0  0  0  0  0  0  0  0
    0.1360   59.7360  -20.3870 S   0  0  0  0  0  0  0  0  0  0  0  0
    0.4940   61.0530  -20.8770 O   0  0  0  0  0  0  0  0  0  0  0  0
   -1.1980   59.2010  -20.5740 O   0  0  0  0  0  0  0  0  0  0  0  0
    0.2570   59.9150  -18.6470 C   0  0  0  0  0  0  0  0  0  0  0  0
    0.2590   58.8660  -17.7480 C   0  0  0  0  0  0  0  0  0  0  0  0
    0.3830   59.4420  -16.5170 N   0  0  0  0  0  0  0  0  0  0  0  0
    0.4510   60.7970  -16.7010 C   0  0  0  0  0  0  0  0  0  0  0  0
    0.3720   61.1240  -17.9730 N   0  0  0  0  0  0  0  0  0  0  0  0
    1.3020   57.2860  -20.3450 C   0  0  0  0  0  0  0  0  0  0  0  0
    5.5390   56.9810  -18.0910 C   0  0  0  0  0  0  0  0  0  0  0  0
    5.3710   56.9540  -16.5450 C   0  0  0  0  0  0  0  0  0  0  0  0
    5.2430   53.5530  -14.9530 C   0  0  0  0  0  0  0  0  0  0  0  0
    5.0370   49.6740  -13.1910 H   0  0  0  0  0  0  0  0  0  0  0  0
    3.8570   50.9770  -12.9980 H   0  0  0  0  0  0  0  0  0  0  0  0
    5.3630   50.9390  -12.0010 H   0  0  0  0  0  0  0  0  0  0  0  0
    6.5390   52.9580  -11.8620 H   0  0  0  0  0  0  0  0  0  0  0  0
    6.6110   55.4080  -11.8780 H   0  0  0  0  0  0  0  0  0  0  0  0
    5.8160   56.6840  -13.8050 H   0  0  0  0  0  0  0  0  0  0  0  0
    2.8380   56.0280  -16.6480 H   0  0  0  0  0  0  0  0  0  0  0  0
    3.1650   54.3160  -16.4630 H   0  0  0  0  0  0  0  0  0  0  0  0
    3.0380   54.7760  -18.8450 H   0  0  0  0  0  0  0  0  0  0  0  0
    4.7310   54.4420  -18.4820 H   0  0  0  0  0  0  0  0  0  0  0  0
    2.5350   55.5170  -20.3120 H   0  0  0  0  0  0  0  0  0  0  0  0
    2.1180   55.7680  -22.5740 H   0  0  0  0  0  0  0  0  0  0  0  0
    3.8380   56.0740  -22.3780 H   0  0  0  0  0  0  0  0  0  0  0  0
    2.6570   57.6440  -23.9570 H   0  0  0  0  0  0  0  0  0  0  0  0
    3.5370   58.4540  -22.6760 H   0  0  0  0  0  0  0  0  0  0  0  0
    0.5180   58.0770  -22.9140 H   0  0  0  0  0  0  0  0  0  0  0  0
    1.4640   59.5760  -22.8800 H   0  0  0  0  0  0  0  0  0  0  0  0
    0.1890   57.7960  -17.8910 H   0  0  0  0  0  0  0  0  0  0  0  0
    0.4220   58.9620  -15.6320 H   0  0  0  0  0  0  0  0  0  0  0  0
    0.5600   61.4810  -15.8670 H   0  0  0  0  0  0  0  0  0  0  0  0
    0.4650   56.6830  -20.7200 H   0  0  0  0  0  0  0  0  0  0  0  0
    1.1730   57.3930  -19.2650 H   0  0  0  0  0  0  0  0  0  0  0  0
    5.7930   57.9950  -18.4160 H   0  0  0  0  0  0  0  0  0  0  0  0
    6.3830   56.3330  -18.3660 H   0  0  0  0  0  0  0  0  0  0  0  0
    4.6790   57.7470  -16.2370 H   0  0  0  0  0  0  0  0  0  0  0  0
    6.3490   57.1690  -16.1000 H   0  0  0  0  0  0  0  0  0  0  0  0
    4.9010   52.9860  -15.8140 H   0  0  0  0  0  0  0  0  0  0  0  0
  1 33  1  0  0  0  0
  2  3  1  0  0  0  0
  2  1  1  0  0  0  0
  3  4  1  0  0  0  0
  4 34  1  0  0  0  0
  5  4  2  0  0  0  0
  5 35  1  0  0  0  0
  6 36  1  0  0  0  0
  6  5  1  0  0  0  0
  7 30  1  0  0  0  0
  7  6  2  0  0  0  0
  8  7  1  0  0  0  0
  9 37  1  0  0  0  0
  9 38  1  0  0  0  0
  9  8  1  0  0  0  0
 10  9  1  0  0  0  0
 11 10  1  0  0  0  0
 11 28  1  0  0  0  0
 12 11  1  0  0  0  0
 13 12  2  0  0  0  0
 14 27  1  0  0  0  0
 14 41  1  1  0  0  0
 14 12  1  0  0  0  0
 15 14  1  0  0  0  0
 16 45  1  0  0  0  0
 16 17  1  0  0  0  0
 16 15  1  0  0  0  0
 17 18  1  0  0  0  0
 18 19  1  0  0  0  0
 18 27  1  0  0  0  0
 19 22  1  0  0  0  0
 20 19  2  0  0  0  0
 21 19  2  0  0  0  0
 22 26  1  0  0  0  0
 22 23  2  0  0  0  0
 23 24  1  0  0  0  0
 24 49  1  0  0  0  0
 25 24  1  0  0  0  0
 25 50  1  0  0  0  0
 26 25  2  0  0  0  0
 27 52  1  0  0  0  0
 28 29  1  0  0  0  0
 29 55  1  0  0  0  0
 29  8  1  0  0  0  0
 29 56  1  0  0  0  0
 30  3  2  0  0  0  0
 31  1  1  0  0  0  0
 32  1  1  0  0  0  0
 39 10  1  0  0  0  0
 40 10  1  0  0  0  0
 42 15  1  0  0  0  0
 43 15  1  0  0  0  0
 44 16  1  0  0  0  0
 46 17  1  0  0  0  0
 47 17  1  0  0  0  0
 48 23  1  0  0  0  0
 51 27  1  0  0  0  0
 53 28  1  0  0  0  0
 54 28  1  0  0  0  0
 57 30  1  0  0  0  0
M  END
>  <Pose>
1

>  <Score>
-4.76

$$$$
